xflr5 v6.48

 Calculated polar for: HUGHES HELICOPTERS HH-02 AIRFOIL

 1 1 Reynolds number fixed          Mach number fixed         

 xtrf =   1.000 (top)        1.000 (bottom)
 Mach =   0.000     Re =     2.500 e 6     Ncrit =   9.000

  alpha     CL        CD       CDp       Cm    Top Xtr Bot Xtr   Cpmin    Chinge    XCp    
 ------- -------- --------- --------- -------- ------- ------- -------- --------- ---------
 -16.700  -0.8397   0.23299   0.23173   0.1167  0.8213  0.0036  -2.6420   0.0000   0.3781
 -16.600  -0.8367   0.23179   0.23052   0.1160  0.8195  0.0036  -2.6002   0.0000   0.3780
 -16.500  -0.8337   0.23056   0.22928   0.1153  0.8176  0.0036  -2.5607   0.0000   0.3778
 -16.400  -0.8307   0.22932   0.22803   0.1146  0.8157  0.0037  -2.5229   0.0000   0.3776
 -16.300  -0.8277   0.22806   0.22677   0.1140  0.8137  0.0037  -2.4868   0.0000   0.3774
 -16.200  -0.8247   0.22678   0.22549   0.1133  0.8117  0.0037  -2.4523   0.0000   0.3772
 -16.100  -0.8217   0.22549   0.22419   0.1126  0.8096  0.0037  -2.4192   0.0000   0.3769
 -16.000  -0.8187   0.22419   0.22288   0.1119  0.8076  0.0038  -2.3878   0.0000   0.3767
 -15.900  -0.8157   0.22287   0.22156   0.1111  0.8056  0.0038  -2.3579   0.0000   0.3764
 -14.500  -1.4076   0.04438   0.04236   0.0070  0.8153  0.0042  -21.3275   0.0000   0.2402
 -14.400  -1.4193   0.04247   0.04036   0.0074  0.8119  0.0042  -21.4294   0.0000   0.2407
 -14.300  -1.4235   0.04082   0.03862   0.0074  0.8092  0.0042  -21.4216   0.0000   0.2408
 -14.200  -1.4251   0.03940   0.03713   0.0075  0.8066  0.0042  -21.3686   0.0000   0.2410
 -14.100  -1.4249   0.03815   0.03581   0.0077  0.8041  0.0042  -21.2857   0.0000   0.2413
 -14.000  -1.4234   0.03703   0.03462   0.0079  0.8018  0.0042  -21.1809   0.0000   0.2416
 -13.900  -1.4210   0.03600   0.03353   0.0082  0.8000  0.0043  -21.0591   0.0000   0.2419
 -13.800  -1.4177   0.03504   0.03251   0.0084  0.7999  0.0043  -20.9246   0.0000   0.2423
 -13.700  -1.4138   0.03414   0.03156   0.0087  0.7997  0.0043  -20.7792   0.0000   0.2426
 -13.600  -1.4094   0.03331   0.03065   0.0090  0.7996  0.0043  -20.6249   0.0000   0.2430
 -13.500  -1.4044   0.03251   0.02980   0.0093  0.7995  0.0044  -20.4631   0.0000   0.2434
 -13.400  -1.3990   0.03176   0.02900   0.0095  0.7993  0.0044  -20.2950   0.0000   0.2438
 -13.300  -1.3932   0.03104   0.02823   0.0098  0.7991  0.0044  -20.1215   0.0000   0.2441
 -13.200  -1.3871   0.03036   0.02749   0.0101  0.7989  0.0044  -19.9434   0.0000   0.2445
 -13.100  -1.3807   0.02970   0.02679   0.0104  0.7987  0.0045  -19.7612   0.0000   0.2449
 -13.000  -1.3740   0.02908   0.02611   0.0106  0.7984  0.0045  -19.5753   0.0000   0.2453
 -12.900  -1.3671   0.02847   0.02546   0.0109  0.7981  0.0045  -19.3864   0.0000   0.2456
 -12.800  -1.3599   0.02790   0.02483   0.0112  0.7978  0.0046  -19.1945   0.0000   0.2460
 -12.700  -1.3525   0.02734   0.02422   0.0114  0.7974  0.0046  -19.0001   0.0000   0.2464
 -12.600  -1.3449   0.02680   0.02364   0.0117  0.7970  0.0046  -18.8033   0.0000   0.2468
 -12.500  -1.3370   0.02629   0.02308   0.0119  0.7966  0.0047  -18.6044   0.0000   0.2472
 -12.400  -1.3291   0.02580   0.02254   0.0122  0.7961  0.0047  -18.4035   0.0000   0.2475
 -12.300  -1.3209   0.02532   0.02202   0.0124  0.7957  0.0047  -18.2007   0.0000   0.2479
 -12.200  -1.3125   0.02487   0.02152   0.0126  0.7952  0.0047  -17.9961   0.0000   0.2483
 -12.100  -1.3040   0.02443   0.02104   0.0128  0.7948  0.0048  -17.7899   0.0000   0.2486
 -12.000  -1.2954   0.02401   0.02058   0.0130  0.7943  0.0048  -17.5822   0.0000   0.2490
 -11.900  -1.2866   0.02361   0.02014   0.0132  0.7937  0.0048  -17.3732   0.0000   0.2494
 -11.800  -1.2777   0.02323   0.01972   0.0134  0.7932  0.0049  -17.1631   0.0000   0.2497
 -11.700  -1.2686   0.02286   0.01931   0.0136  0.7927  0.0049  -16.9515   0.0000   0.2501
 -11.600  -1.2594   0.02251   0.01893   0.0138  0.7921  0.0049  -16.7388   0.0000   0.2505
 -11.500  -1.2502   0.02218   0.01856   0.0140  0.7915  0.0049  -16.5254   0.0000   0.2508
 -11.400  -1.2408   0.02185   0.01820   0.0142  0.7909  0.0049  -16.3114   0.0000   0.2512
 -11.300  -1.2313   0.02155   0.01786   0.0143  0.7902  0.0050  -16.0970   0.0000   0.2515
 -11.200  -1.2217   0.02125   0.01753   0.0145  0.7896  0.0050  -15.8825   0.0000   0.2519
 -11.100  -1.2121   0.02096   0.01721   0.0146  0.7888  0.0050  -15.6679   0.0000   0.2522
 -11.000  -1.2024   0.02068   0.01690   0.0148  0.7880  0.0050  -15.4534   0.0000   0.2526
 -10.900  -1.1936   0.02017   0.01633   0.0150  0.7871  0.0050  -15.2689   0.0000   0.2530
 -10.800  -1.1863   0.01927   0.01531   0.0153  0.7861  0.0051  -15.1333   0.0000   0.2534
 -10.700  -1.1776   0.01870   0.01465   0.0156  0.7851  0.0052  -14.9584   0.0000   0.2538
 -10.600  -1.1683   0.01826   0.01415   0.0158  0.7840  0.0052  -14.7675   0.0000   0.2542
 -10.500  -1.1587   0.01789   0.01374   0.0159  0.7828  0.0053  -14.5685   0.0000   0.2546
 -10.400  -1.1489   0.01757   0.01338   0.0161  0.7817  0.0053  -14.3649   0.0000   0.2550
 -10.300  -1.1389   0.01728   0.01306   0.0162  0.7805  0.0054  -14.1585   0.0000   0.2553
 -10.200  -1.1288   0.01701   0.01277   0.0163  0.7794  0.0054  -13.9506   0.0000   0.2557
 -10.100  -1.1186   0.01676   0.01249   0.0165  0.7784  0.0055  -13.7421   0.0000   0.2561
 -10.000  -1.1084   0.01653   0.01222   0.0166  0.7773  0.0055  -13.5337   0.0000   0.2564
  -9.900  -1.0981   0.01630   0.01197   0.0167  0.7763  0.0056  -13.3258   0.0000   0.2568
  -9.800  -1.0877   0.01608   0.01172   0.0168  0.7751  0.0056  -13.1189   0.0000   0.2572
  -9.700  -1.0773   0.01586   0.01147   0.0169  0.7740  0.0057  -12.9130   0.0000   0.2575
  -9.600  -1.0668   0.01565   0.01123   0.0170  0.7727  0.0057  -12.7084   0.0000   0.2579
  -9.500  -1.0564   0.01543   0.01099   0.0171  0.7714  0.0057  -12.5051   0.0000   0.2582
  -9.400  -1.0458   0.01523   0.01076   0.0172  0.7701  0.0058  -12.3032   0.0000   0.2586
  -9.300  -1.0353   0.01502   0.01052   0.0173  0.7687  0.0058  -12.1027   0.0000   0.2590
  -9.200  -1.0247   0.01482   0.01029   0.0174  0.7672  0.0059  -11.9036   0.0000   0.2593
  -9.100  -1.0141   0.01461   0.01006   0.0175  0.7658  0.0059  -11.7059   0.0000   0.2597
  -9.000  -1.0035   0.01442   0.00983   0.0175  0.7643  0.0060  -11.5096   0.0000   0.2601
  -8.900  -0.9928   0.01422   0.00961   0.0176  0.7628  0.0060  -11.3145   0.0000   0.2605
  -8.800  -0.9821   0.01403   0.00939   0.0177  0.7613  0.0061  -11.1208   0.0000   0.2608
  -8.700  -0.9714   0.01384   0.00918   0.0178  0.7597  0.0061  -10.9282   0.0000   0.2612
  -8.600  -0.9606   0.01366   0.00896   0.0178  0.7580  0.0062  -10.7368   0.0000   0.2616
  -8.500  -0.9498   0.01348   0.00876   0.0179  0.7563  0.0062  -10.5464   0.0000   0.2620
  -8.400  -0.9389   0.01331   0.00856   0.0180  0.7545  0.0063  -10.3570   0.0000   0.2623
  -8.300  -0.9280   0.01314   0.00837   0.0180  0.7527  0.0063  -10.1685   0.0000   0.2627
  -8.200  -0.9171   0.01299   0.00820   0.0181  0.7507  0.0064  -9.9807   0.0000   0.2631
  -8.100  -0.9061   0.01283   0.00802   0.0181  0.7499  0.0064  -9.7941   0.0000   0.2635
  -8.000  -0.8952   0.01268   0.00785   0.0182  0.7498  0.0064  -9.6079   0.0000   0.2639
  -7.900  -0.8842   0.01255   0.00770   0.0182  0.7497  0.0065  -9.4217   0.0000   0.2643
  -7.800  -0.8732   0.01242   0.00756   0.0183  0.7496  0.0065  -9.2359   0.0000   0.2647
  -7.700  -0.8628   0.01202   0.00711   0.0184  0.7495  0.0067  -9.0816   0.0000   0.2652
  -7.600  -0.8520   0.01180   0.00687   0.0185  0.7493  0.0069  -8.9069   0.0000   0.2656
  -7.500  -0.8410   0.01165   0.00671   0.0185  0.7492  0.0070  -8.7273   0.0000   0.2661
  -7.400  -0.8299   0.01151   0.00657   0.0186  0.7490  0.0071  -8.5470   0.0000   0.2665
  -7.300  -0.8188   0.01139   0.00644   0.0186  0.7488  0.0072  -8.3673   0.0000   0.2669
  -7.200  -0.8076   0.01127   0.00631   0.0186  0.7486  0.0073  -8.1895   0.0000   0.2674
  -7.100  -0.7965   0.01116   0.00619   0.0187  0.7484  0.0074  -8.0138   0.0000   0.2678
  -7.000  -0.7853   0.01104   0.00606   0.0187  0.7481  0.0075  -7.8403   0.0000   0.2683
  -6.900  -0.7741   0.01092   0.00594   0.0187  0.7478  0.0077  -7.6687   0.0000   0.2688
  -6.800  -0.7629   0.01081   0.00581   0.0188  0.7475  0.0078  -7.4985   0.0000   0.2692
  -6.700  -0.7517   0.01071   0.00571   0.0188  0.7471  0.0079  -7.3283   0.0000   0.2697
  -6.600  -0.7404   0.01063   0.00562   0.0188  0.7467  0.0080  -7.1580   0.0000   0.2702
  -6.500  -0.7293   0.01043   0.00540   0.0189  0.7462  0.0082  -7.0014   0.0000   0.2707
  -6.400  -0.7182   0.01024   0.00519   0.0189  0.7457  0.0085  -6.8444   0.0000   0.2712
  -6.300  -0.7070   0.01012   0.00506   0.0189  0.7452  0.0087  -6.6841   0.0000   0.2718
  -6.200  -0.6957   0.01001   0.00496   0.0189  0.7446  0.0088  -6.5316   0.0000   0.2723
  -6.100  -0.6844   0.00992   0.00486   0.0189  0.7439  0.0090  -6.3798   0.0000   0.2728
  -6.000  -0.6730   0.00983   0.00477   0.0190  0.7431  0.0091  -6.2296   0.0000   0.2734
  -5.900  -0.6617   0.00974   0.00467   0.0190  0.7423  0.0093  -6.0813   0.0000   0.2739
  -5.800  -0.6504   0.00965   0.00457   0.0190  0.7413  0.0095  -5.9346   0.0000   0.2745
  -5.700  -0.6390   0.00956   0.00448   0.0190  0.7403  0.0096  -5.7894   0.0000   0.2751
  -5.600  -0.6276   0.00948   0.00439   0.0190  0.7390  0.0098  -5.6453   0.0000   0.2757
  -5.500  -0.6162   0.00940   0.00430   0.0190  0.7375  0.0099  -5.5021   0.0000   0.2764
  -5.400  -0.6048   0.00933   0.00422   0.0190  0.7359  0.0100  -5.3598   0.0000   0.2770
  -5.300  -0.5935   0.00916   0.00403   0.0190  0.7341  0.0103  -5.2291   0.0000   0.2777
  -5.200  -0.5822   0.00902   0.00386   0.0190  0.7321  0.0106  -5.1113   0.0000   0.2784
  -5.100  -0.5708   0.00892   0.00376   0.0191  0.7300  0.0109  -4.9879   0.0000   0.2791
  -5.000  -0.5594   0.00884   0.00367   0.0190  0.7278  0.0111  -4.8638   0.0000   0.2799
  -4.900  -0.5480   0.00877   0.00359   0.0190  0.7256  0.0113  -4.7404   0.0000   0.2806
  -4.800  -0.5365   0.00871   0.00351   0.0190  0.7233  0.0115  -4.6182   0.0000   0.2814
  -4.700  -0.5250   0.00864   0.00343   0.0190  0.7208  0.0118  -4.4977   0.0000   0.2822
  -4.600  -0.5135   0.00858   0.00335   0.0190  0.7181  0.0120  -4.3783   0.0000   0.2830
  -4.500  -0.5019   0.00852   0.00328   0.0190  0.7150  0.0122  -4.2600   0.0000   0.2838
  -4.400  -0.4904   0.00846   0.00321   0.0189  0.7118  0.0123  -4.1424   0.0000   0.2847
  -4.300  -0.4788   0.00841   0.00315   0.0189  0.7086  0.0125  -4.0255   0.0000   0.2856
  -4.200  -0.4673   0.00828   0.00299   0.0189  0.7056  0.0130  -3.9205   0.0000   0.2866
  -4.100  -0.4558   0.00818   0.00288   0.0189  0.7027  0.0136  -3.8116   0.0000   0.2876
  -4.000  -0.4442   0.00811   0.00281   0.0188  0.7001  0.0141  -3.6997   0.0000   0.2886
  -3.900  -0.4327   0.00804   0.00274   0.0188  0.6998  0.0145  -3.5882   0.0000   0.2897
  -3.800  -0.4211   0.00797   0.00268   0.0188  0.6995  0.0149  -3.4778   0.0000   0.2909
  -3.700  -0.4095   0.00791   0.00262   0.0188  0.6993  0.0153  -3.3687   0.0000   0.2921
  -3.600  -0.3980   0.00786   0.00257   0.0187  0.6989  0.0156  -3.2607   0.0000   0.2934
  -3.500  -0.3864   0.00781   0.00252   0.0187  0.6985  0.0158  -3.1536   0.0000   0.2948
  -3.400  -0.3748   0.00776   0.00247   0.0187  0.6980  0.0160  -3.0474   0.0000   0.2962
  -3.300  -0.3632   0.00765   0.00235   0.0186  0.6974  0.0169  -2.9488   0.0000   0.2978
  -3.200  -0.3516   0.00757   0.00228   0.0186  0.6968  0.0177  -2.8470   0.0000   0.2994
  -3.100  -0.3400   0.00751   0.00223   0.0186  0.6960  0.0183  -2.7448   0.0000   0.3011
  -3.000  -0.3284   0.00745   0.00218   0.0185  0.6949  0.0190  -2.6435   0.0000   0.3029
  -2.900  -0.3168   0.00741   0.00214   0.0185  0.6933  0.0195  -2.5434   0.0000   0.3049
  -2.800  -0.3052   0.00737   0.00209   0.0185  0.6908  0.0199  -2.4445   0.0000   0.3070
  -2.700  -0.2936   0.00730   0.00201   0.0184  0.6872  0.0207  -2.3499   0.0000   0.3093
  -2.600  -0.2819   0.00723   0.00193   0.0184  0.6822  0.0220  -2.2566   0.0000   0.3118
  -2.500  -0.2702   0.00718   0.00187   0.0183  0.6761  0.0230  -2.1624   0.0000   0.3144
  -2.400  -0.2585   0.00715   0.00182   0.0183  0.6689  0.0238  -2.0796   0.0000   0.3171
  -2.300  -0.2467   0.00713   0.00177   0.0182  0.6609  0.0245  -1.9974   0.0000   0.3202
  -2.200  -0.2349   0.00710   0.00173   0.0181  0.6545  0.0249  -1.9162   0.0000   0.3235
  -2.100  -0.2232   0.00704   0.00166   0.0180  0.6500  0.0276  -1.8402   0.0000   0.3273
  -2.000  -0.2115   0.00697   0.00161   0.0180  0.6494  0.0305  -1.7631   0.0000   0.3315
  -1.900  -0.1998   0.00692   0.00158   0.0179  0.6488  0.0326  -1.6915   0.0000   0.3361
  -1.800  -0.1882   0.00688   0.00154   0.0179  0.6479  0.0340  -1.6220   0.0000   0.3414
  -1.700  -0.1765   0.00684   0.00151   0.0178  0.6470  0.0347  -1.5530   0.0000   0.3473
  -1.600  -0.1648   0.00681   0.00148   0.0178  0.6459  0.0355  -1.4851   0.0000   0.3541
  -1.500  -0.1531   0.00676   0.00144   0.0177  0.6445  0.0399  -1.4200   0.0000   0.3619
  -1.400  -0.1414   0.00671   0.00140   0.0177  0.6428  0.0443  -1.3547   0.0000   0.3710
  -1.300  -0.1296   0.00666   0.00137   0.0176  0.6408  0.0478  -1.2897   0.0000   0.3816
  -1.200  -0.1179   0.00662   0.00133   0.0175  0.6381  0.0535  -1.2255   0.0000   0.3944
  -1.100  -0.1062   0.00655   0.00129   0.0174  0.6345  0.0636  -1.1624   0.0000   0.4098
  -0.900  -0.0826   0.00636   0.00120   0.0172  0.6245  0.1029  -1.0389   0.0000   0.4530
  -0.800  -0.0708   0.00625   0.00116   0.0170  0.6179  0.1263  -0.9783   0.0000   0.4851
  -0.700  -0.0589   0.00612   0.00111   0.0168  0.6105  0.1495  -0.9186   0.0000   0.5298
  -0.600  -0.0471   0.00603   0.00109   0.0167  0.6042  0.1791  -0.8670   0.0000   0.5976
  -0.500  -0.0354   0.00595   0.00106   0.0166  0.6000  0.1973  -0.8174   0.0000   0.7103
  -0.400  -0.0237   0.00585   0.00104   0.0165  0.5995  0.2262  -0.7686   0.0000   0.9339
  -0.300  -0.0121   0.00573   0.00102   0.0164  0.5988  0.2539  -0.7205   0.0000   1.5867
  -0.200  -0.0005   0.00556   0.00099   0.0162  0.5980  0.2984  -0.6733   0.0000  32.9418
  -0.100   0.0111   0.00540   0.00097   0.0161  0.5969  0.3458  -0.6268   0.0000  -1.1893
   0.000   0.0226   0.00525   0.00095   0.0160  0.5956  0.3904  -0.5807   0.0000  -0.4502
   0.100   0.0343   0.00515   0.00094   0.0159  0.5939  0.4240  -0.5367   0.0000  -0.2105
   0.200   0.0459   0.00507   0.00093   0.0158  0.5918  0.4484  -0.4953   0.0000  -0.0923
   0.300   0.0576   0.00500   0.00093   0.0157  0.5891  0.4748  -0.4544   0.0000  -0.0216
   0.400   0.0693   0.00495   0.00093   0.0156  0.5853  0.4927  -0.4621   0.0000   0.0253
   0.500   0.0812   0.00494   0.00093   0.0155  0.5803  0.5038  -0.4736   0.0000   0.0591
   0.600   0.0930   0.00490   0.00093   0.0153  0.5737  0.5305  -0.4851   0.0000   0.0847
   0.700   0.1050   0.00490   0.00094   0.0151  0.5645  0.5427  -0.4967   0.0000   0.1048
   0.800   0.1170   0.00492   0.00094   0.0150  0.5539  0.5478  -0.5084   0.0000   0.1207
   0.900   0.1289   0.00492   0.00094   0.0149  0.5494  0.5514  -0.5200   0.0000   0.1331
   1.000   0.1406   0.00490   0.00094   0.0148  0.5479  0.5629  -0.5326   0.0000   0.1432
   1.100   0.1524   0.00488   0.00095   0.0147  0.5459  0.5744  -0.5456   0.0000   0.1518
   1.200   0.1641   0.00485   0.00096   0.0146  0.5434  0.5844  -0.5590   0.0000   0.1592
   1.300   0.1759   0.00485   0.00096   0.0145  0.5401  0.5914  -0.5740   0.0000   0.1656
   1.400   0.1878   0.00486   0.00097   0.0144  0.5354  0.5968  -0.5890   0.0000   0.1714
   1.500   0.1998   0.00488   0.00098   0.0142  0.5293  0.6026  -0.6042   0.0000   0.1766
   1.600   0.2117   0.00488   0.00099   0.0141  0.5222  0.6203  -0.6194   0.0000   0.1814
   1.700   0.2237   0.00489   0.00101   0.0139  0.5139  0.6302  -0.6347   0.0000   0.1856
   1.800   0.2357   0.00490   0.00102   0.0137  0.5045  0.6368  -0.6501   0.0000   0.1894
   1.900   0.2476   0.00491   0.00103   0.0136  0.4993  0.6415  -0.6654   0.0000   0.1926
   2.000   0.2594   0.00492   0.00103   0.0135  0.4970  0.6454  -0.6808   0.0000   0.1954
   2.100   0.2713   0.00494   0.00104   0.0134  0.4927  0.6481  -0.6963   0.0000   0.1981
   2.200   0.2834   0.00499   0.00106   0.0132  0.4830  0.6496  -0.7120   0.0000   0.2008
   2.300   0.2957   0.00507   0.00108   0.0129  0.4678  0.6549  -0.7296   0.0000   0.2037
   2.400   0.3079   0.00511   0.00110   0.0127  0.4520  0.6645  -0.7475   0.0000   0.2062
   2.500   0.3197   0.00511   0.00111   0.0125  0.4475  0.6735  -0.7653   0.0000   0.2080
   2.600   0.3316   0.00511   0.00113   0.0124  0.4422  0.6811  -0.7831   0.0000   0.2098
   2.700   0.3439   0.00518   0.00116   0.0121  0.4285  0.6876  -0.8013   0.0000   0.2119
   2.800   0.3564   0.00530   0.00120   0.0117  0.4028  0.6926  -0.8198   0.0000   0.2142
   2.900   0.3685   0.00535   0.00123   0.0115  0.3924  0.6959  -0.8397   0.0000   0.2158
   3.000   0.3810   0.00546   0.00127   0.0111  0.3757  0.6983  -0.8603   0.0000   0.2177
   3.100   0.3935   0.00558   0.00131   0.0108  0.3540  0.6999  -0.8810   0.0000   0.2194
   3.300   0.4176   0.00566   0.00136   0.0103  0.3371  0.7163  -0.9223   0.0000   0.2219
   3.400   0.4299   0.00575   0.00141   0.0100  0.3245  0.7239  -0.9454   0.0000   0.2234
   3.500   0.4421   0.00581   0.00144   0.0097  0.3098  0.7307  -0.9691   0.0000   0.2246
   3.600   0.4540   0.00583   0.00147   0.0095  0.2997  0.7371  -0.9928   0.0000   0.2255
   3.700   0.4659   0.00584   0.00149   0.0094  0.2975  0.7433  -1.0166   0.0000   0.2263
   3.800   0.4778   0.00586   0.00152   0.0092  0.2941  0.7497  -1.0405   0.0000   0.2270
   3.900   0.4896   0.00585   0.00155   0.0090  0.2887  0.7741  -1.0645   0.0000   0.2278
   4.000   0.5013   0.00583   0.00157   0.0088  0.2813  0.8000  -1.0884   0.0000   0.2286
   4.100   0.5110   0.00568   0.00166   0.0091  0.2714  0.9169  -1.1102   0.0000   0.2282
   4.200   0.5231   0.00577   0.00171   0.0089  0.2575  0.9197  -1.1379   0.0000   0.2290
   4.300   0.5350   0.00582   0.00175   0.0087  0.2494  0.9212  -1.1713   0.0000   0.2297
   4.400   0.5469   0.00587   0.00179   0.0085  0.2471  0.9224  -1.2049   0.0000   0.2302
   4.500   0.5588   0.00593   0.00183   0.0084  0.2435  0.9233  -1.2388   0.0000   0.2308
   4.600   0.5708   0.00603   0.00189   0.0081  0.2363  0.9239  -1.2731   0.0000   0.2314
   4.700   0.5828   0.00615   0.00196   0.0079  0.2279  0.9243  -1.3075   0.0000   0.2321
   4.800   0.5948   0.00626   0.00202   0.0077  0.2190  0.9247  -1.3421   0.0000   0.2326
   4.900   0.6065   0.00635   0.00208   0.0075  0.2094  0.9249  -1.3766   0.0000   0.2330
   5.000   0.6183   0.00641   0.00214   0.0074  0.2007  0.9259  -1.4114   0.0000   0.2334
   5.100   0.6300   0.00644   0.00217   0.0072  0.1989  0.9275  -1.4466   0.0000   0.2337
   5.200   0.6418   0.00648   0.00221   0.0071  0.1973  0.9289  -1.4819   0.0000   0.2341
   5.300   0.6536   0.00653   0.00226   0.0069  0.1948  0.9302  -1.5176   0.0000   0.2344
   5.400   0.6655   0.00660   0.00231   0.0067  0.1901  0.9315  -1.5552   0.0000   0.2348
   5.500   0.6775   0.00672   0.00237   0.0064  0.1819  0.9327  -1.5982   0.0000   0.2354
   5.600   0.6896   0.00685   0.00244   0.0061  0.1721  0.9338  -1.6416   0.0000   0.2359
   5.700   0.7014   0.00693   0.00250   0.0059  0.1620  0.9349  -1.6850   0.0000   0.2362
   5.800   0.7132   0.00700   0.00256   0.0058  0.1532  0.9360  -1.7307   0.0000   0.2365
   5.900   0.7248   0.00705   0.00261   0.0056  0.1494  0.9370  -1.7785   0.0000   0.2367
   6.000   0.7365   0.00710   0.00266   0.0055  0.1473  0.9380  -1.8267   0.0000   0.2369
   6.100   0.7482   0.00719   0.00274   0.0053  0.1435  0.9388  -1.8753   0.0000   0.2372
   6.200   0.7601   0.00734   0.00283   0.0050  0.1374  0.9396  -1.9245   0.0000   0.2376
   6.300   0.7720   0.00749   0.00293   0.0047  0.1298  0.9404  -1.9740   0.0000   0.2380
   6.400   0.7837   0.00758   0.00300   0.0045  0.1246  0.9410  -2.0276   0.0000   0.2382
   6.500   0.7953   0.00764   0.00306   0.0044  0.1227  0.9417  -2.0850   0.0000   0.2384
   6.600   0.8070   0.00773   0.00314   0.0042  0.1191  0.9423  -2.1725   0.0000   0.2386
   6.700   0.8187   0.00788   0.00323   0.0039  0.1129  0.9430  -2.2692   0.0000   0.2389
   6.800   0.8304   0.00802   0.00333   0.0037  0.1046  0.9438  -2.3676   0.0000   0.2391
   6.900   0.8419   0.00810   0.00340   0.0035  0.0991  0.9445  -2.4666   0.0000   0.2393
   7.000   0.8535   0.00820   0.00348   0.0033  0.0956  0.9452  -2.5671   0.0000   0.2394
   7.100   0.8651   0.00835   0.00359   0.0031  0.0898  0.9458  -2.6690   0.0000   0.2396
   7.200   0.8768   0.00849   0.00369   0.0028  0.0831  0.9463  -2.7721   0.0000   0.2398
   7.300   0.8884   0.00858   0.00378   0.0027  0.0792  0.9468  -2.8767   0.0000   0.2400
   7.400   0.8999   0.00869   0.00387   0.0025  0.0764  0.9472  -2.9823   0.0000   0.2401
   7.500   0.9116   0.00884   0.00399   0.0022  0.0717  0.9475  -3.0897   0.0000   0.2403
   7.600   0.9233   0.00901   0.00411   0.0019  0.0650  0.9477  -3.1981   0.0000   0.2405
   7.700   0.9348   0.00911   0.00420   0.0018  0.0628  0.9480  -3.3082   0.0000   0.2406
   7.800   0.9464   0.00925   0.00432   0.0015  0.0586  0.9483  -3.4192   0.0000   0.2408
   7.900   0.9579   0.00943   0.00445   0.0013  0.0530  0.9487  -3.5311   0.0000   0.2410
   8.000   0.9694   0.00954   0.00455   0.0011  0.0495  0.9489  -3.6445   0.0000   0.2410
   8.100   0.9808   0.00964   0.00465   0.0009  0.0481  0.9491  -3.7598   0.0000   0.2411
   8.200   0.9923   0.00976   0.00476   0.0007  0.0460  0.9493  -3.8760   0.0000   0.2412
   8.300   1.0037   0.00990   0.00488   0.0005  0.0434  0.9495  -3.9930   0.0000   0.2413
   8.400   1.0151   0.01004   0.00501   0.0003  0.0406  0.9497  -4.1110   0.0000   0.2413
   8.500   1.0264   0.01017   0.00512   0.0001  0.0373  0.9499  -4.2300   0.0000   0.2414
   8.800   1.0607   0.01048   0.00544  -0.0004  0.0337  0.9513  -4.5975   0.0000   0.2415
   8.900   1.0721   0.01060   0.00556  -0.0007  0.0323  0.9517  -4.7223   0.0000   0.2416
   9.000   1.0835   0.01077   0.00570  -0.0009  0.0301  0.9520  -4.8477   0.0000   0.2417
   9.100   1.0948   0.01097   0.00588  -0.0012  0.0273  0.9522  -4.9735   0.0000   0.2418
   9.200   1.1061   0.01113   0.00602  -0.0014  0.0249  0.9524  -5.1006   0.0000   0.2418
   9.300   1.1174   0.01127   0.00616  -0.0016  0.0238  0.9525  -5.2295   0.0000   0.2419
   9.400   1.1286   0.01144   0.00631  -0.0019  0.0224  0.9526  -5.3588   0.0000   0.2419
   9.500   1.1398   0.01165   0.00650  -0.0021  0.0208  0.9528  -5.4881   0.0000   0.2420
   9.600   1.1510   0.01180   0.00665  -0.0023  0.0197  0.9529  -5.6194   0.0000   0.2420
   9.700   1.1621   0.01195   0.00680  -0.0025  0.0187  0.9530  -5.7518   0.0000   0.2420
   9.800   1.1732   0.01215   0.00698  -0.0028  0.0172  0.9531  -5.8839   0.0000   0.2421
   9.900   1.1842   0.01234   0.00716  -0.0030  0.0158  0.9532  -6.0167   0.0000   0.2421
  10.000   1.1953   0.01250   0.00732  -0.0032  0.0148  0.9533  -6.1510   0.0000   0.2421
  10.100   1.2062   0.01272   0.00752  -0.0034  0.0133  0.9534  -6.2847   0.0000   0.2421
  10.200   1.2171   0.01290   0.00771  -0.0037  0.0120  0.9535  -6.4189   0.0000   0.2421
  10.300   1.2279   0.01312   0.00791  -0.0039  0.0108  0.9537  -6.5529   0.0000   0.2421
  10.400   1.2386   0.01333   0.00812  -0.0041  0.0097  0.9540  -6.6860   0.0000   0.2421
  10.500   1.2493   0.01357   0.00835  -0.0043  0.0085  0.9544  -6.8189   0.0000   0.2421
  10.600   1.2599   0.01380   0.00858  -0.0045  0.0075  0.9548  -6.9501   0.0000   0.2420
  10.700   1.2703   0.01406   0.00884  -0.0047  0.0065  0.9552  -7.0802   0.0000   0.2420
  10.800   1.2809   0.01428   0.00906  -0.0049  0.0060  0.9556  -7.2110   0.0000   0.2420
  10.900   1.2913   0.01453   0.00933  -0.0051  0.0054  0.9560  -7.3410   0.0000   0.2420
  11.000   1.3017   0.01479   0.00960  -0.0053  0.0049  0.9565  -7.4649   0.0000   0.2419
  11.100   1.3121   0.01500   0.00982  -0.0055  0.0048  0.9570  -7.5976   0.0000   0.2419
  11.200   1.3225   0.01522   0.01005  -0.0057  0.0045  0.9574  -7.7310   0.0000   0.2418
  11.300   1.3328   0.01546   0.01030  -0.0059  0.0043  0.9578  -7.8892   0.0000   0.2418
  11.400   1.3429   0.01571   0.01056  -0.0061  0.0041  0.9582  -8.0535   0.0000   0.2417
  11.500   1.3528   0.01599   0.01085  -0.0063  0.0038  0.9585  -8.2151   0.0000   0.2417
  11.600   1.3626   0.01632   0.01121  -0.0065  0.0036  0.9588  -8.3715   0.0000   0.2416
  11.700   1.3723   0.01662   0.01153  -0.0067  0.0035  0.9590  -8.5314   0.0000   0.2415
  11.800   1.3824   0.01685   0.01177  -0.0069  0.0035  0.9591  -8.7021   0.0000   0.2415
  11.900   1.3924   0.01708   0.01202  -0.0070  0.0034  0.9593  -8.8732   0.0000   0.2414
  12.000   1.4023   0.01733   0.01228  -0.0072  0.0034  0.9595  -9.0444   0.0000   0.2413
  12.100   1.4121   0.01758   0.01255  -0.0074  0.0034  0.9599  -9.2157   0.0000   0.2412
  12.200   1.4217   0.01784   0.01283  -0.0075  0.0033  0.9602  -9.3869   0.0000   0.2411
  12.300   1.4311   0.01811   0.01311  -0.0077  0.0033  0.9605  -9.5580   0.0000   0.2410
  12.400   1.4404   0.01838   0.01341  -0.0078  0.0033  0.9608  -9.7292   0.0000   0.2409
  12.500   1.4496   0.01867   0.01372  -0.0080  0.0032  0.9610  -9.9002   0.0000   0.2408
  12.600   1.4587   0.01897   0.01404  -0.0081  0.0032  0.9611  -10.0714   0.0000   0.2407
  12.700   1.4677   0.01930   0.01440  -0.0084  0.0032  0.9611  -10.2427   0.0000   0.2406
  12.800   1.4765   0.01965   0.01477  -0.0086  0.0031  0.9611  -10.4129   0.0000   0.2406
  12.900   1.4851   0.02001   0.01516  -0.0089  0.0031  0.9610  -10.5816   0.0000   0.2405
  13.000   1.4933   0.02038   0.01554  -0.0090  0.0031  0.9610  -10.7489   0.0000   0.2404
  13.100   1.5013   0.02074   0.01593  -0.0092  0.0030  0.9610  -10.9153   0.0000   0.2403
  13.200   1.5091   0.02112   0.01633  -0.0093  0.0030  0.9611  -11.0818   0.0000   0.2401
  13.300   1.5168   0.02150   0.01673  -0.0094  0.0030  0.9611  -11.2468   0.0000   0.2400
  13.400   1.5240   0.02189   0.01714  -0.0094  0.0029  0.9611  -11.4094   0.0000   0.2398
  13.500   1.5307   0.02229   0.01757  -0.0094  0.0029  0.9612  -11.5679   0.0000   0.2396
  13.600   1.5354   0.02273   0.01803  -0.0092  0.0029  0.9613  -11.7068   0.0000   0.2392
  13.700   1.5394   0.02324   0.01857  -0.0089  0.0029  0.9614  -11.8401   0.0000   0.2388
  13.800   1.5438   0.02373   0.01908  -0.0087  0.0028  0.9616  -11.9779   0.0000   0.2385
  13.900   1.5485   0.02421   0.01958  -0.0084  0.0028  0.9617  -12.1197   0.0000   0.2381
  14.000   1.5533   0.02469   0.02009  -0.0082  0.0028  0.9618  -12.2634   0.0000   0.2377
  14.100   1.5582   0.02518   0.02060  -0.0080  0.0028  0.9619  -12.4078   0.0000   0.2374
  14.200   1.5629   0.02568   0.02113  -0.0078  0.0028  0.9620  -12.5516   0.0000   0.2371
  14.300   1.5672   0.02620   0.02167  -0.0075  0.0027  0.9621  -12.6926   0.0000   0.2367
  14.400   1.5710   0.02676   0.02226  -0.0073  0.0027  0.9622  -12.8276   0.0000   0.2363
  14.500   1.5733   0.02747   0.02300  -0.0072  0.0027  0.9626  -12.9462   0.0000   0.2360
  14.600   1.5762   0.02813   0.02369  -0.0070  0.0027  0.9631  -13.0725   0.0000   0.2357
  14.700   1.5796   0.02877   0.02436  -0.0068  0.0027  0.9636  -13.2040   0.0000   0.2354
  14.800   1.5830   0.02939   0.02501  -0.0066  0.0026  0.9642  -13.3369   0.0000   0.2350
  14.900   1.5864   0.03003   0.02568  -0.0064  0.0026  0.9649  -13.4693   0.0000   0.2347
  15.000   1.5893   0.03068   0.02636  -0.0062  0.0026  0.9654  -13.5981   0.0000   0.2344
  15.100   1.5920   0.03136   0.02707  -0.0060  0.0026  0.9660  -13.7238   0.0000   0.2340
  15.200   1.5939   0.03212   0.02786  -0.0058  0.0026  0.9665  -13.8415   0.0000   0.2337
  15.300   1.5937   0.03313   0.02891  -0.0057  0.0025  0.9671  -13.9332   0.0000   0.2335
  15.400   1.5949   0.03402   0.02983  -0.0057  0.0025  0.9675  -14.0411   0.0000   0.2332
  15.500   1.5966   0.03487   0.03072  -0.0056  0.0025  0.9678  -14.1552   0.0000   0.2329
  15.600   1.5983   0.03572   0.03160  -0.0055  0.0025  0.9679  -14.2699   0.0000   0.2327
  15.700   1.5998   0.03660   0.03251  -0.0055  0.0025  0.9680  -14.3825   0.0000   0.2324
  15.800   1.6010   0.03752   0.03347  -0.0054  0.0025  0.9681  -14.4912   0.0000   0.2322
  15.900   1.5992   0.03880   0.03480  -0.0056  0.0024  0.9683  -14.5623   0.0000   0.2320
  16.000   1.5976   0.04002   0.03607  -0.0057  0.0024  0.9684  -14.6373   0.0000   0.2319
  16.100   1.5973   0.04113   0.03721  -0.0057  0.0024  0.9684  -14.7264   0.0000   0.2317
  16.200   1.5971   0.04223   0.03835  -0.0058  0.0024  0.9685  -14.8174   0.0000   0.2315
  16.300   1.5968   0.04338   0.03953  -0.0058  0.0024  0.9686  -14.9065   0.0000   0.2313
  16.400   1.5948   0.04478   0.04098  -0.0061  0.0024  0.9687  -14.9732   0.0000   0.2313
  16.500   1.5907   0.04652   0.04276  -0.0066  0.0024  0.9688  -15.0117   0.0000   0.2314
  16.600   1.5890   0.04794   0.04423  -0.0069  0.0023  0.9689  -15.0816   0.0000   0.2313
  16.700   1.5876   0.04934   0.04566  -0.0072  0.0023  0.9689  -15.1536   0.0000   0.2313
  16.800   1.5857   0.05078   0.04715  -0.0076  0.0023  0.9690  -15.2206   0.0000   0.2313
  16.900   1.5805   0.05284   0.04926  -0.0083  0.0023  0.9691  -15.2395   0.0000   0.2315
  17.000   1.5760   0.05480   0.05126  -0.0090  0.0023  0.9691  -15.2680   0.0000   0.2318
  17.100   1.5727   0.05648   0.05298  -0.0095  0.0023  0.9691  -15.3133   0.0000   0.2318
  17.200   1.5693   0.05818   0.05473  -0.0100  0.0023  0.9691  -15.3568   0.0000   0.2319
  17.300   1.5639   0.06029   0.05688  -0.0107  0.0023  0.9690  -15.3709   0.0000   0.2322
  17.400   1.5558   0.06293   0.05958  -0.0119  0.0023  0.9690  -15.3454   0.0000   0.2327
  17.500   1.5511   0.06496   0.06166  -0.0126  0.0023  0.9690  -15.3676   0.0000   0.2330
  17.600   1.5467   0.06701   0.06375  -0.0134  0.0022  0.9689  -15.3909   0.0000   0.2333
  17.700   1.5380   0.06988   0.06668  -0.0147  0.0022  0.9689  -15.3522   0.0000   0.2340
  17.800   1.5299   0.07267   0.06952  -0.0160  0.0022  0.9688  -15.3190   0.0000   0.2346
  17.900   1.5242   0.07502   0.07191  -0.0170  0.0022  0.9687  -15.3198   0.0000   0.2351
  18.000   1.5180   0.07746   0.07440  -0.0180  0.0022  0.9686  -15.3127   0.0000   0.2355
  18.100   1.5050   0.08131   0.07832  -0.0200  0.0022  0.9684  -15.1997   0.0000   0.2367
  18.200   1.4977   0.08404   0.08110  -0.0212  0.0022  0.9683  -15.1702   0.0000   0.2374
  18.300   1.4902   0.08678   0.08389  -0.0225  0.0022  0.9681  -15.1372   0.0000   0.2381
  18.400   1.4744   0.09111   0.08828  -0.0246  0.0023  0.9678  -14.9743   0.0000   0.2395
  18.500   1.4654   0.09410   0.09131  -0.0260  0.0023  0.9676  -14.9155   0.0000   0.2403
  18.600   1.4563   0.09717   0.09443  -0.0274  0.0023  0.9674  -14.8507   0.0000   0.2412
  18.700   1.4371   0.10238   0.09972  -0.0300  0.0023  0.9670  -14.6190   0.0000   0.2431
  18.800   1.4276   0.10560   0.10299  -0.0315  0.0023  0.9668  -14.5427   0.0000   0.2441
  18.900   1.4175   0.10896   0.10639  -0.0332  0.0023  0.9666  -14.4533   0.0000   0.2452
  19.000   1.3919   0.11560   0.11312  -0.0366  0.0023  0.9662  -14.0972   0.0000   0.2480
  19.100   1.3824   0.11890   0.11646  -0.0382  0.0023  0.9660  -14.0092   0.0000   0.2491
  19.200   1.3735   0.12209   0.11969  -0.0398  0.0023  0.9658  -13.9294   0.0000   0.2503
  19.300   1.3628   0.12569   0.12333  -0.0416  0.0024  0.9656  -13.8146   0.0000   0.2516
  19.500   1.3218   0.13715   0.13492  -0.0476  0.0024  0.9649  -13.2155   0.0000   0.2569
  19.600   1.3148   0.13998   0.13778  -0.0491  0.0024  0.9647  -13.1538   0.0000   0.2580
  19.700   1.3084   0.14276   0.14059  -0.0505  0.0024  0.9645  -13.0991   0.0000   0.2591
  19.800   1.3014   0.14572   0.14359  -0.0520  0.0024  0.9643  -13.0296   0.0000   0.2603
  19.900   1.2824   0.15144   0.14938  -0.0550  0.0024  0.9640  -12.7216   0.0000   0.2632
  20.000   1.2735   0.15504   0.15302  -0.0569  0.0025  0.9638  -12.6006   0.0000   0.2648


