xflr5 v6.48

 Calculated polar for: HUGHES HELICOPTERS HH-02 AIRFOIL

 1 1 Reynolds number fixed          Mach number fixed         

 xtrf =   1.000 (top)        1.000 (bottom)
 Mach =   0.000     Re =     5.000 e 6     Ncrit =   9.000

  alpha     CL        CD       CDp       Cm    Top Xtr Bot Xtr   Cpmin    Chinge    XCp    
 ------- -------- --------- --------- -------- ------- ------- -------- --------- ---------
 -17.100  -1.6066   0.04985   0.04778   0.0088  0.8324  0.0032  -28.2352   0.0000   0.2355
 -17.000  -1.6296   0.04347   0.04126   0.0013  0.8292  0.0032  -28.7015   0.0000   0.2311
 -16.900  -1.6450   0.04025   0.03793  -0.0014  0.8255  0.0032  -28.9163   0.0000   0.2297
 -16.800  -1.6542   0.03878   0.03640  -0.0008  0.8216  0.0032  -28.9606   0.0000   0.2303
 -16.700  -1.6630   0.03769   0.03525   0.0007  0.8173  0.0032  -28.9813   0.0000   0.2313
 -16.600  -1.6667   0.03674   0.03425   0.0017  0.8135  0.0032  -28.9206   0.0000   0.2321
 -16.500  -1.6671   0.03585   0.03331   0.0023  0.8103  0.0032  -28.8069   0.0000   0.2327
 -16.400  -1.6659   0.03502   0.03243   0.0028  0.8075  0.0033  -28.6672   0.0000   0.2332
 -16.300  -1.6638   0.03424   0.03161   0.0034  0.8049  0.0033  -28.5116   0.0000   0.2337
 -16.200  -1.6610   0.03352   0.03084   0.0039  0.8025  0.0033  -28.3431   0.0000   0.2341
 -16.100  -1.6575   0.03283   0.03012   0.0043  0.8003  0.0033  -28.1637   0.0000   0.2346
 -16.000  -1.6535   0.03218   0.02943   0.0048  0.7999  0.0033  -27.9754   0.0000   0.2351
 -15.900  -1.6490   0.03155   0.02877   0.0053  0.7999  0.0033  -27.7793   0.0000   0.2356
 -15.800  -1.6440   0.03096   0.02814   0.0057  0.7998  0.0033  -27.5763   0.0000   0.2360
 -15.700  -1.6387   0.03040   0.02754   0.0061  0.7997  0.0033  -27.3672   0.0000   0.2365
 -15.600  -1.6331   0.02985   0.02697   0.0066  0.7996  0.0033  -27.1530   0.0000   0.2369
 -15.500  -1.6271   0.02933   0.02641   0.0070  0.7994  0.0033  -26.9341   0.0000   0.2373
 -15.400  -1.6208   0.02883   0.02588   0.0073  0.7993  0.0034  -26.7111   0.0000   0.2378
 -15.300  -1.6143   0.02834   0.02536   0.0077  0.7992  0.0034  -26.4846   0.0000   0.2382
 -15.200  -1.6076   0.02788   0.02487   0.0081  0.7990  0.0034  -26.2549   0.0000   0.2386
 -15.100  -1.6006   0.02743   0.02439   0.0084  0.7989  0.0034  -26.0223   0.0000   0.2390
 -15.000  -1.5935   0.02699   0.02392   0.0088  0.7987  0.0034  -25.7872   0.0000   0.2395
 -14.900  -1.5861   0.02657   0.02348   0.0091  0.7985  0.0034  -25.5500   0.0000   0.2399
 -14.800  -1.5786   0.02616   0.02304   0.0094  0.7983  0.0034  -25.3107   0.0000   0.2403
 -14.700  -1.5709   0.02577   0.02262   0.0097  0.7980  0.0034  -25.0698   0.0000   0.2407
 -14.600  -1.5630   0.02538   0.02221   0.0100  0.7977  0.0034  -24.8273   0.0000   0.2411
 -14.500  -1.5551   0.02501   0.02181   0.0103  0.7974  0.0034  -24.5836   0.0000   0.2415
 -14.400  -1.5469   0.02465   0.02142   0.0106  0.7970  0.0034  -24.3387   0.0000   0.2418
 -14.300  -1.5387   0.02429   0.02105   0.0109  0.7966  0.0034  -24.0929   0.0000   0.2422
 -14.200  -1.5303   0.02395   0.02068   0.0112  0.7960  0.0034  -23.8463   0.0000   0.2426
 -14.100  -1.5219   0.02361   0.02032   0.0114  0.7954  0.0034  -23.5991   0.0000   0.2430
 -14.000  -1.5133   0.02329   0.01997   0.0117  0.7947  0.0035  -23.3513   0.0000   0.2434
 -13.900  -1.5046   0.02297   0.01963   0.0120  0.7938  0.0035  -23.1031   0.0000   0.2438
 -13.800  -1.4958   0.02266   0.01929   0.0122  0.7928  0.0035  -22.8546   0.0000   0.2441
 -13.700  -1.4870   0.02235   0.01897   0.0124  0.7916  0.0035  -22.6059   0.0000   0.2445
 -13.600  -1.4780   0.02206   0.01865   0.0127  0.7903  0.0035  -22.3571   0.0000   0.2449
 -13.500  -1.4690   0.02177   0.01833   0.0129  0.7889  0.0035  -22.1083   0.0000   0.2453
 -13.400  -1.4599   0.02149   0.01803   0.0131  0.7874  0.0035  -21.8595   0.0000   0.2456
 -13.300  -1.4507   0.02121   0.01772   0.0133  0.7858  0.0035  -21.6109   0.0000   0.2460
 -13.200  -1.4414   0.02094   0.01743   0.0136  0.7843  0.0035  -21.3624   0.0000   0.2464
 -13.100  -1.4321   0.02067   0.01713   0.0138  0.7829  0.0035  -21.1142   0.0000   0.2467
 -13.000  -1.4227   0.02041   0.01684   0.0140  0.7813  0.0035  -20.8663   0.0000   0.2471
 -12.900  -1.4132   0.02016   0.01656   0.0141  0.7797  0.0035  -20.6188   0.0000   0.2474
 -12.800  -1.4037   0.01991   0.01629   0.0143  0.7779  0.0035  -20.3718   0.0000   0.2478
 -12.700  -1.3948   0.01951   0.01585   0.0146  0.7762  0.0035  -20.1483   0.0000   0.2482
 -12.600  -1.3870   0.01887   0.01511   0.0149  0.7743  0.0036  -19.9643   0.0000   0.2486
 -12.500  -1.3784   0.01839   0.01457   0.0151  0.7724  0.0037  -19.7564   0.0000   0.2490
 -12.400  -1.3693   0.01799   0.01412   0.0154  0.7704  0.0037  -19.5382   0.0000   0.2494
 -12.300  -1.3600   0.01763   0.01372   0.0156  0.7683  0.0038  -19.3140   0.0000   0.2498
 -12.200  -1.3505   0.01731   0.01336   0.0158  0.7662  0.0038  -19.0861   0.0000   0.2501
 -12.100  -1.3408   0.01701   0.01303   0.0160  0.7641  0.0039  -18.8555   0.0000   0.2505
 -12.000  -1.3311   0.01673   0.01272   0.0161  0.7620  0.0039  -18.6232   0.0000   0.2508
 -11.900  -1.3212   0.01647   0.01243   0.0163  0.7601  0.0040  -18.3895   0.0000   0.2512
 -11.800  -1.3112   0.01622   0.01216   0.0164  0.7583  0.0040  -18.1550   0.0000   0.2516
 -11.700  -1.3012   0.01599   0.01190   0.0166  0.7565  0.0041  -17.9200   0.0000   0.2519
 -11.600  -1.2911   0.01576   0.01165   0.0167  0.7550  0.0041  -17.6847   0.0000   0.2523
 -11.500  -1.2809   0.01555   0.01141   0.0169  0.7535  0.0041  -17.4493   0.0000   0.2526
 -11.400  -1.2707   0.01534   0.01119   0.0170  0.7522  0.0042  -17.2142   0.0000   0.2529
 -11.300  -1.2604   0.01514   0.01097   0.0171  0.7510  0.0042  -16.9795   0.0000   0.2533
 -11.200  -1.2500   0.01494   0.01075   0.0172  0.7500  0.0042  -16.7453   0.0000   0.2536
 -11.100  -1.2397   0.01475   0.01055   0.0174  0.7500  0.0043  -16.5121   0.0000   0.2540
 -11.000  -1.2293   0.01456   0.01034   0.0175  0.7499  0.0043  -16.2796   0.0000   0.2543
 -10.900  -1.2189   0.01438   0.01015   0.0176  0.7499  0.0043  -16.0481   0.0000   0.2547
 -10.800  -1.2084   0.01420   0.00995   0.0177  0.7499  0.0044  -15.8175   0.0000   0.2550
 -10.700  -1.1979   0.01402   0.00976   0.0178  0.7499  0.0044  -15.5881   0.0000   0.2554
 -10.600  -1.1874   0.01385   0.00958   0.0179  0.7498  0.0044  -15.3597   0.0000   0.2557
 -10.500  -1.1768   0.01368   0.00938   0.0180  0.7498  0.0044  -15.1325   0.0000   0.2561
 -10.400  -1.1662   0.01351   0.00920   0.0181  0.7497  0.0045  -14.9064   0.0000   0.2564
 -10.300  -1.1556   0.01335   0.00903   0.0182  0.7497  0.0045  -14.6815   0.0000   0.2568
 -10.200  -1.1449   0.01319   0.00885   0.0183  0.7497  0.0045  -14.4579   0.0000   0.2572
 -10.100  -1.1342   0.01303   0.00868   0.0184  0.7496  0.0045  -14.2356   0.0000   0.2575
 -10.000  -1.1235   0.01287   0.00851   0.0185  0.7496  0.0046  -14.0145   0.0000   0.2579
  -9.900  -1.1128   0.01272   0.00834   0.0186  0.7495  0.0046  -13.7948   0.0000   0.2582
  -9.800  -1.1021   0.01256   0.00818   0.0187  0.7494  0.0046  -13.5764   0.0000   0.2586
  -9.700  -1.0913   0.01242   0.00802   0.0188  0.7494  0.0047  -13.3593   0.0000   0.2589
  -9.600  -1.0805   0.01227   0.00786   0.0188  0.7493  0.0047  -13.1436   0.0000   0.2593
  -9.500  -1.0696   0.01212   0.00770   0.0189  0.7492  0.0047  -12.9291   0.0000   0.2597
  -9.400  -1.0588   0.01198   0.00755   0.0190  0.7491  0.0047  -12.7160   0.0000   0.2600
  -9.300  -1.0479   0.01184   0.00740   0.0191  0.7489  0.0048  -12.5042   0.0000   0.2604
  -9.200  -1.0370   0.01170   0.00725   0.0191  0.7488  0.0048  -12.2937   0.0000   0.2608
  -9.100  -1.0261   0.01157   0.00710   0.0192  0.7487  0.0048  -12.0845   0.0000   0.2612
  -9.000  -1.0152   0.01144   0.00696   0.0193  0.7485  0.0048  -11.8766   0.0000   0.2615
  -8.900  -1.0042   0.01131   0.00682   0.0193  0.7483  0.0049  -11.6700   0.0000   0.2619
  -8.800  -0.9932   0.01118   0.00669   0.0194  0.7481  0.0049  -11.4648   0.0000   0.2623
  -8.700  -0.9822   0.01106   0.00655   0.0195  0.7479  0.0049  -11.2608   0.0000   0.2627
  -8.600  -0.9711   0.01094   0.00642   0.0195  0.7477  0.0049  -11.0582   0.0000   0.2631
  -8.500  -0.9601   0.01082   0.00629   0.0196  0.7475  0.0049  -10.8570   0.0000   0.2634
  -8.400  -0.9490   0.01071   0.00617   0.0196  0.7473  0.0049  -10.6571   0.0000   0.2638
  -8.300  -0.9379   0.01059   0.00605   0.0197  0.7470  0.0050  -10.4586   0.0000   0.2642
  -8.200  -0.9268   0.01048   0.00593   0.0197  0.7468  0.0050  -10.2614   0.0000   0.2646
  -8.100  -0.9157   0.01037   0.00581   0.0197  0.7464  0.0050  -10.0657   0.0000   0.2650
  -8.000  -0.9046   0.01025   0.00567   0.0198  0.7461  0.0050  -9.8745   0.0000   0.2654
  -7.900  -0.8936   0.01005   0.00545   0.0198  0.7457  0.0052  -9.6945   0.0000   0.2659
  -7.800  -0.8825   0.00989   0.00528   0.0199  0.7452  0.0053  -9.5109   0.0000   0.2663
  -7.700  -0.8714   0.00976   0.00514   0.0199  0.7447  0.0055  -9.3252   0.0000   0.2667
  -7.600  -0.8602   0.00964   0.00502   0.0200  0.7442  0.0056  -9.1386   0.0000   0.2672
  -7.500  -0.8490   0.00954   0.00491   0.0200  0.7435  0.0057  -8.9525   0.0000   0.2676
  -7.400  -0.8378   0.00943   0.00480   0.0200  0.7428  0.0058  -8.7676   0.0000   0.2680
  -7.300  -0.8266   0.00934   0.00470   0.0201  0.7419  0.0059  -8.5841   0.0000   0.2685
  -7.200  -0.8153   0.00924   0.00460   0.0201  0.7409  0.0060  -8.4019   0.0000   0.2689
  -7.100  -0.8040   0.00916   0.00451   0.0201  0.7398  0.0061  -8.2211   0.0000   0.2694
  -7.000  -0.7927   0.00907   0.00441   0.0201  0.7383  0.0062  -8.0418   0.0000   0.2698
  -6.900  -0.7814   0.00899   0.00433   0.0201  0.7367  0.0063  -7.8637   0.0000   0.2703
  -6.800  -0.7700   0.00892   0.00424   0.0202  0.7347  0.0064  -7.6868   0.0000   0.2708
  -6.700  -0.7587   0.00885   0.00416   0.0202  0.7323  0.0064  -7.5108   0.0000   0.2713
  -6.600  -0.7473   0.00879   0.00409   0.0202  0.7297  0.0065  -7.3359   0.0000   0.2718
  -6.500  -0.7360   0.00868   0.00396   0.0202  0.7268  0.0067  -7.1689   0.0000   0.2723
  -6.400  -0.7246   0.00857   0.00384   0.0202  0.7236  0.0070  -7.0016   0.0000   0.2728
  -6.300  -0.7132   0.00849   0.00375   0.0202  0.7200  0.0072  -6.8331   0.0000   0.2733
  -6.200  -0.7018   0.00842   0.00367   0.0201  0.7161  0.0074  -6.6682   0.0000   0.2738
  -6.100  -0.6903   0.00835   0.00359   0.0201  0.7120  0.0075  -6.5121   0.0000   0.2743
  -6.000  -0.6789   0.00828   0.00352   0.0201  0.7083  0.0076  -6.3577   0.0000   0.2749
  -5.900  -0.6674   0.00822   0.00345   0.0201  0.7051  0.0078  -6.2050   0.0000   0.2754
  -5.800  -0.6559   0.00816   0.00338   0.0201  0.7024  0.0078  -6.0538   0.0000   0.2760
  -5.700  -0.6445   0.00810   0.00331   0.0201  0.7000  0.0079  -5.9038   0.0000   0.2766
  -5.600  -0.6330   0.00803   0.00325   0.0201  0.6999  0.0080  -5.7552   0.0000   0.2772
  -5.500  -0.6216   0.00794   0.00315   0.0201  0.6997  0.0082  -5.6150   0.0000   0.2778
  -5.400  -0.6101   0.00785   0.00305   0.0201  0.6995  0.0085  -5.4872   0.0000   0.2785
  -5.300  -0.5987   0.00777   0.00298   0.0201  0.6993  0.0088  -5.3574   0.0000   0.2792
  -5.200  -0.5872   0.00770   0.00291   0.0201  0.6991  0.0090  -5.2276   0.0000   0.2799
  -5.100  -0.5757   0.00763   0.00285   0.0200  0.6989  0.0092  -5.0988   0.0000   0.2806
  -5.000  -0.5642   0.00757   0.00279   0.0200  0.6985  0.0093  -4.9712   0.0000   0.2813
  -4.900  -0.5527   0.00751   0.00273   0.0200  0.6982  0.0095  -4.8448   0.0000   0.2821
  -4.800  -0.5411   0.00745   0.00268   0.0200  0.6978  0.0097  -4.7195   0.0000   0.2829
  -4.700  -0.5296   0.00740   0.00262   0.0200  0.6973  0.0098  -4.5954   0.0000   0.2837
  -4.600  -0.5181   0.00734   0.00257   0.0200  0.6967  0.0099  -4.4724   0.0000   0.2846
  -4.500  -0.5065   0.00730   0.00252   0.0199  0.6960  0.0100  -4.3503   0.0000   0.2854
  -4.400  -0.4950   0.00722   0.00244   0.0199  0.6951  0.0103  -4.2330   0.0000   0.2864
  -4.300  -0.4834   0.00715   0.00237   0.0199  0.6941  0.0108  -4.1172   0.0000   0.2873
  -4.200  -0.4718   0.00709   0.00231   0.0199  0.6927  0.0112  -4.0001   0.0000   0.2883
  -4.100  -0.4603   0.00703   0.00226   0.0198  0.6911  0.0115  -3.8835   0.0000   0.2894
  -4.000  -0.4487   0.00698   0.00220   0.0198  0.6891  0.0118  -3.7681   0.0000   0.2904
  -3.900  -0.4371   0.00694   0.00216   0.0198  0.6866  0.0121  -3.6537   0.0000   0.2916
  -3.800  -0.4254   0.00691   0.00211   0.0197  0.6829  0.0123  -3.5404   0.0000   0.2927
  -3.700  -0.4137   0.00688   0.00206   0.0197  0.6775  0.0124  -3.4278   0.0000   0.2939
  -3.600  -0.4019   0.00686   0.00201   0.0196  0.6702  0.0126  -3.3170   0.0000   0.2951
  -3.500  -0.3902   0.00681   0.00194   0.0195  0.6606  0.0133  -3.2104   0.0000   0.2965
  -3.400  -0.3785   0.00676   0.00188   0.0195  0.6516  0.0140  -3.1035   0.0000   0.2979
  -3.300  -0.3668   0.00671   0.00184   0.0194  0.6494  0.0145  -2.9974   0.0000   0.2994
  -3.200  -0.3552   0.00667   0.00180   0.0194  0.6482  0.0150  -2.8924   0.0000   0.3010
  -3.100  -0.3435   0.00663   0.00176   0.0193  0.6466  0.0154  -2.7887   0.0000   0.3028
  -3.000  -0.3319   0.00659   0.00172   0.0193  0.6447  0.0157  -2.6862   0.0000   0.3046
  -2.900  -0.3202   0.00656   0.00169   0.0192  0.6425  0.0159  -2.5848   0.0000   0.3066
  -2.800  -0.3085   0.00654   0.00165   0.0192  0.6394  0.0160  -2.4844   0.0000   0.3087
  -2.700  -0.2968   0.00649   0.00160   0.0191  0.6356  0.0170  -2.3875   0.0000   0.3110
  -2.600  -0.2850   0.00646   0.00156   0.0190  0.6314  0.0180  -2.2908   0.0000   0.3134
  -2.500  -0.2733   0.00642   0.00152   0.0190  0.6274  0.0188  -2.1949   0.0000   0.3160
  -2.400  -0.2615   0.00640   0.00149   0.0189  0.6235  0.0195  -2.1032   0.0000   0.3188
  -2.300  -0.2497   0.00637   0.00146   0.0188  0.6193  0.0199  -2.0201   0.0000   0.3218
  -2.200  -0.2380   0.00634   0.00142   0.0187  0.6149  0.0211  -1.9392   0.0000   0.3252
  -2.100  -0.2262   0.00629   0.00138   0.0187  0.6101  0.0228  -1.8593   0.0000   0.3290
  -2.000  -0.2145   0.00625   0.00135   0.0186  0.6051  0.0240  -1.7826   0.0000   0.3331
  -1.900  -0.2027   0.00622   0.00132   0.0185  0.6005  0.0248  -1.7113   0.0000   0.3378
  -1.800  -0.1910   0.00619   0.00129   0.0185  0.5995  0.0261  -1.6415   0.0000   0.3430
  -1.700  -0.1793   0.00615   0.00126   0.0184  0.5987  0.0294  -1.5731   0.0000   0.3490
  -1.600  -0.1676   0.00610   0.00123   0.0183  0.5975  0.0320  -1.5048   0.0000   0.3557
  -1.500  -0.1559   0.00606   0.00120   0.0183  0.5959  0.0337  -1.4371   0.0000   0.3634
  -1.400  -0.1442   0.00604   0.00118   0.0182  0.5935  0.0345  -1.3701   0.0000   0.3724
  -1.300  -0.1324   0.00603   0.00116   0.0181  0.5904  0.0349  -1.3039   0.0000   0.3829
  -1.200  -0.1206   0.00601   0.00114   0.0180  0.5871  0.0364  -1.2389   0.0000   0.3955
  -1.100  -0.1088   0.00600   0.00111   0.0179  0.5833  0.0401  -1.1750   0.0000   0.4108
  -1.000  -0.0969   0.00597   0.00109   0.0178  0.5792  0.0438  -1.1117   0.0000   0.4297
  -0.900  -0.0851   0.00595   0.00107   0.0177  0.5748  0.0473  -1.0493   0.0000   0.4538
  -0.800  -0.0732   0.00593   0.00105   0.0176  0.5700  0.0521  -0.9877   0.0000   0.4857
  -0.700  -0.0614   0.00587   0.00102   0.0175  0.5650  0.0638  -0.9274   0.0000   0.5297
  -0.600  -0.0496   0.00580   0.00100   0.0174  0.5596  0.0788  -0.8739   0.0000   0.5945
  -0.500  -0.0378   0.00571   0.00097   0.0173  0.5544  0.0972  -0.8242   0.0000   0.6995
  -0.400  -0.0261   0.00563   0.00095   0.0172  0.5503  0.1178  -0.7752   0.0000   0.8995
  -0.300  -0.0143   0.00555   0.00092   0.0171  0.5495  0.1342  -0.7268   0.0000   1.4259
  -0.200  -0.0026   0.00545   0.00089   0.0170  0.5488  0.1492  -0.6790   0.0000   6.6511
  -0.100   0.0091   0.00541   0.00088   0.0169  0.5477  0.1698  -0.6316   0.0000  -1.5812
   0.100   0.0327   0.00528   0.00085   0.0166  0.5411  0.2062  -0.5388   0.0000  -0.2552
   0.200   0.0447   0.00524   0.00084   0.0164  0.5313  0.2340  -0.4965   0.0000  -0.1154
   0.300   0.0569   0.00522   0.00083   0.0162  0.5196  0.2491  -0.4549   0.0000  -0.0341
   0.400   0.0688   0.00513   0.00082   0.0160  0.5084  0.2908  -0.4616   0.0000   0.0176
   0.500   0.0805   0.00499   0.00081   0.0158  0.5000  0.3387  -0.4730   0.0000   0.0533
   0.600   0.0922   0.00490   0.00080   0.0157  0.4991  0.3732  -0.4844   0.0000   0.0791
   0.700   0.1039   0.00481   0.00079   0.0156  0.4980  0.3984  -0.4959   0.0000   0.0992
   0.800   0.1156   0.00470   0.00079   0.0154  0.4965  0.4383  -0.5073   0.0000   0.1152
   0.900   0.1274   0.00468   0.00079   0.0153  0.4942  0.4490  -0.5189   0.0000   0.1282
   1.000   0.1392   0.00467   0.00080   0.0152  0.4897  0.4675  -0.5314   0.0000   0.1393
   1.100   0.1512   0.00464   0.00081   0.0150  0.4815  0.4870  -0.5445   0.0000   0.1491
   1.200   0.1633   0.00467   0.00082   0.0148  0.4711  0.4963  -0.5583   0.0000   0.1577
   1.300   0.1754   0.00471   0.00083   0.0146  0.4574  0.4995  -0.5734   0.0000   0.1649
   1.400   0.1873   0.00471   0.00084   0.0145  0.4490  0.5096  -0.5885   0.0000   0.1708
   1.500   0.1991   0.00470   0.00085   0.0143  0.4454  0.5228  -0.6036   0.0000   0.1760
   1.600   0.2113   0.00473   0.00087   0.0141  0.4324  0.5358  -0.6189   0.0000   0.1813
   1.700   0.2239   0.00483   0.00090   0.0137  0.4067  0.5440  -0.6345   0.0000   0.1866
   1.800   0.2358   0.00485   0.00091   0.0135  0.3971  0.5484  -0.6498   0.0000   0.1903
   1.900   0.2478   0.00488   0.00093   0.0134  0.3908  0.5565  -0.6652   0.0000   0.1937
   2.000   0.2601   0.00493   0.00096   0.0131  0.3774  0.5732  -0.6809   0.0000   0.1973
   2.100   0.2723   0.00498   0.00099   0.0128  0.3620  0.5823  -0.6965   0.0000   0.2005
   2.200   0.2843   0.00500   0.00100   0.0126  0.3490  0.5896  -0.7121   0.0000   0.2030
   2.300   0.2963   0.00503   0.00102   0.0125  0.3434  0.5941  -0.7296   0.0000   0.2053
   2.400   0.3086   0.00511   0.00105   0.0122  0.3321  0.5968  -0.7475   0.0000   0.2078
   2.500   0.3209   0.00519   0.00108   0.0119  0.3185  0.5988  -0.7655   0.0000   0.2102
   2.600   0.3329   0.00523   0.00111   0.0117  0.3041  0.6046  -0.7835   0.0000   0.2121
   2.700   0.3448   0.00523   0.00112   0.0115  0.2988  0.6201  -0.8014   0.0000   0.2136
   2.800   0.3567   0.00523   0.00115   0.0114  0.2956  0.6321  -0.8194   0.0000   0.2151
   2.900   0.3687   0.00526   0.00118   0.0112  0.2892  0.6402  -0.8392   0.0000   0.2166
   3.000   0.3809   0.00533   0.00121   0.0109  0.2808  0.6448  -0.8596   0.0000   0.2182
   3.100   0.3930   0.00539   0.00124   0.0107  0.2736  0.6473  -0.8800   0.0000   0.2196
   3.200   0.4050   0.00543   0.00126   0.0105  0.2662  0.6488  -0.9005   0.0000   0.2208
   3.300   0.4169   0.00546   0.00128   0.0104  0.2585  0.6496  -0.9211   0.0000   0.2218
   3.400   0.4288   0.00549   0.00130   0.0102  0.2514  0.6525  -0.9443   0.0000   0.2228
   3.500   0.4406   0.00550   0.00131   0.0101  0.2492  0.6592  -0.9679   0.0000   0.2237
   3.600   0.4525   0.00552   0.00134   0.0099  0.2474  0.6658  -0.9915   0.0000   0.2245
   3.700   0.4645   0.00556   0.00137   0.0097  0.2429  0.6719  -1.0154   0.0000   0.2254
   3.800   0.4768   0.00565   0.00142   0.0094  0.2318  0.6772  -1.0397   0.0000   0.2266
   3.900   0.4890   0.00573   0.00146   0.0091  0.2219  0.6819  -1.0640   0.0000   0.2276
   4.000   0.5010   0.00577   0.00149   0.0089  0.2134  0.6861  -1.0882   0.0000   0.2284
   4.100   0.5129   0.00580   0.00151   0.0087  0.2034  0.6897  -1.1125   0.0000   0.2290
   4.200   0.5248   0.00582   0.00154   0.0086  0.1994  0.6928  -1.1418   0.0000   0.2296
   4.300   0.5366   0.00585   0.00156   0.0085  0.1982  0.6953  -1.1752   0.0000   0.2302
   4.400   0.5485   0.00587   0.00159   0.0083  0.1967  0.6973  -1.2089   0.0000   0.2307
   4.500   0.5604   0.00592   0.00162   0.0081  0.1939  0.6990  -1.2429   0.0000   0.2313
   4.700   0.5846   0.00607   0.00171   0.0076  0.1816  0.7088  -1.3119   0.0000   0.2326
   4.800   0.5967   0.00614   0.00176   0.0073  0.1745  0.7175  -1.3466   0.0000   0.2332
   4.900   0.6087   0.00618   0.00180   0.0071  0.1674  0.7252  -1.3816   0.0000   0.2338
   5.000   0.6206   0.00621   0.00183   0.0069  0.1585  0.7323  -1.4166   0.0000   0.2342
   5.100   0.6324   0.00624   0.00186   0.0067  0.1500  0.7388  -1.4519   0.0000   0.2346
   5.200   0.6443   0.00627   0.00190   0.0066  0.1482  0.7452  -1.4875   0.0000   0.2350
   5.400   0.6682   0.00633   0.00201   0.0061  0.1405  0.7876  -1.5609   0.0000   0.2359
   5.500   0.6786   0.00614   0.00210   0.0061  0.1355  0.9153  -1.6007   0.0000   0.2359
   5.600   0.6906   0.00623   0.00216   0.0058  0.1295  0.9181  -1.6441   0.0000   0.2363
   5.700   0.7025   0.00629   0.00221   0.0057  0.1248  0.9195  -1.6877   0.0000   0.2367
   5.800   0.7143   0.00635   0.00225   0.0055  0.1234  0.9205  -1.7348   0.0000   0.2369
   5.900   0.7263   0.00645   0.00232   0.0052  0.1185  0.9213  -1.7832   0.0000   0.2373
   6.000   0.7384   0.00660   0.00241   0.0049  0.1098  0.9219  -1.8321   0.0000   0.2378
   6.100   0.7504   0.00669   0.00246   0.0047  0.1013  0.9224  -1.8811   0.0000   0.2381
   6.200   0.7621   0.00675   0.00251   0.0045  0.0992  0.9227  -1.9304   0.0000   0.2383
   6.300   0.7739   0.00681   0.00257   0.0043  0.0974  0.9230  -1.9802   0.0000   0.2385
   6.400   0.7858   0.00691   0.00264   0.0041  0.0937  0.9233  -2.0345   0.0000   0.2388
   6.500   0.7978   0.00704   0.00273   0.0038  0.0877  0.9234  -2.0969   0.0000   0.2391
   6.600   0.8096   0.00715   0.00280   0.0036  0.0800  0.9236  -2.1934   0.0000   0.2394
   6.700   0.8214   0.00722   0.00287   0.0034  0.0782  0.9238  -2.2914   0.0000   0.2395
   6.800   0.8332   0.00733   0.00295   0.0032  0.0746  0.9239  -2.3910   0.0000   0.2398
   6.900   0.8451   0.00747   0.00305   0.0029  0.0694  0.9240  -2.4916   0.0000   0.2400
   7.000   0.8568   0.00757   0.00313   0.0027  0.0648  0.9241  -2.5934   0.0000   0.2402
   7.100   0.8684   0.00764   0.00320   0.0026  0.0633  0.9242  -2.6966   0.0000   0.2403
   7.200   0.8802   0.00778   0.00330   0.0023  0.0587  0.9243  -2.8012   0.0000   0.2405
   7.300   0.8920   0.00793   0.00341   0.0021  0.0519  0.9244  -2.9070   0.0000   0.2407
   7.400   0.9036   0.00801   0.00349   0.0019  0.0493  0.9245  -3.0137   0.0000   0.2408
   7.500   0.9152   0.00810   0.00357   0.0017  0.0478  0.9246  -3.1222   0.0000   0.2409
   7.600   0.9268   0.00822   0.00367   0.0015  0.0450  0.9246  -3.2319   0.0000   0.2410
   7.700   0.9384   0.00835   0.00378   0.0013  0.0418  0.9247  -3.3427   0.0000   0.2411
   7.800   0.9499   0.00845   0.00387   0.0012  0.0389  0.9248  -3.4545   0.0000   0.2412
   7.900   0.9613   0.00854   0.00396   0.0010  0.0361  0.9249  -3.5676   0.0000   0.2412
   8.000   0.9727   0.00862   0.00404   0.0009  0.0349  0.9250  -3.6821   0.0000   0.2412
   8.100   0.9843   0.00870   0.00412   0.0008  0.0345  0.9253  -3.7989   0.0000   0.2412
   8.200   0.9959   0.00878   0.00420   0.0006  0.0337  0.9259  -3.9172   0.0000   0.2413
   8.300   1.0075   0.00888   0.00429   0.0004  0.0322  0.9264  -4.0367   0.0000   0.2414
   8.400   1.0192   0.00904   0.00441   0.0001  0.0294  0.9270  -4.1569   0.0000   0.2416
   8.500   1.0308   0.00918   0.00453  -0.0002  0.0260  0.9275  -4.2782   0.0000   0.2417
   8.600   1.0424   0.00929   0.00462  -0.0004  0.0244  0.9280  -4.4012   0.0000   0.2418
   8.700   1.0539   0.00941   0.00473  -0.0006  0.0232  0.9285  -4.5253   0.0000   0.2418
   8.800   1.0655   0.00957   0.00487  -0.0009  0.0216  0.9288  -4.6501   0.0000   0.2419
   8.900   1.0770   0.00970   0.00499  -0.0011  0.0200  0.9292  -4.7760   0.0000   0.2420
   9.000   1.0885   0.00980   0.00508  -0.0013  0.0194  0.9294  -4.9039   0.0000   0.2420
   9.100   1.0999   0.00992   0.00520  -0.0015  0.0183  0.9296  -5.0326   0.0000   0.2421
   9.200   1.1114   0.01009   0.00534  -0.0018  0.0166  0.9299  -5.1617   0.0000   0.2421
   9.300   1.1228   0.01020   0.00545  -0.0020  0.0156  0.9303  -5.2926   0.0000   0.2422
   9.400   1.1342   0.01033   0.00557  -0.0022  0.0145  0.9307  -5.4245   0.0000   0.2422
   9.500   1.1455   0.01049   0.00572  -0.0024  0.0129  0.9311  -5.5565   0.0000   0.2422
   9.600   1.1568   0.01062   0.00584  -0.0026  0.0119  0.9315  -5.6901   0.0000   0.2422
   9.700   1.1681   0.01078   0.00599  -0.0028  0.0108  0.9319  -5.8243   0.0000   0.2423
   9.800   1.1793   0.01093   0.00614  -0.0030  0.0098  0.9323  -5.9591   0.0000   0.2423
   9.900   1.1906   0.01108   0.00628  -0.0032  0.0089  0.9326  -6.0948   0.0000   0.2423
  10.000   1.2017   0.01126   0.00645  -0.0035  0.0078  0.9329  -6.2307   0.0000   0.2423
  10.100   1.2129   0.01143   0.00662  -0.0037  0.0069  0.9331  -6.3672   0.0000   0.2423
  10.200   1.2240   0.01160   0.00678  -0.0039  0.0060  0.9333  -6.5041   0.0000   0.2423
  10.300   1.2350   0.01179   0.00697  -0.0041  0.0051  0.9334  -6.6409   0.0000   0.2423
  10.400   1.2461   0.01195   0.00712  -0.0043  0.0046  0.9335  -6.7783   0.0000   0.2423
  10.500   1.2571   0.01213   0.00730  -0.0045  0.0042  0.9336  -6.9156   0.0000   0.2422
  10.600   1.2680   0.01232   0.00749  -0.0047  0.0035  0.9337  -7.0445   0.0000   0.2422
  10.700   1.2790   0.01246   0.00764  -0.0049  0.0034  0.9338  -7.1855   0.0000   0.2421
  10.800   1.2900   0.01261   0.00779  -0.0051  0.0033  0.9338  -7.3271   0.0000   0.2421
  10.900   1.3009   0.01276   0.00795  -0.0053  0.0032  0.9339  -7.4698   0.0000   0.2420
  11.000   1.3118   0.01293   0.00812  -0.0054  0.0031  0.9340  -7.6138   0.0000   0.2420
  11.100   1.3226   0.01310   0.00829  -0.0056  0.0029  0.9340  -7.7583   0.0000   0.2419
  11.200   1.3333   0.01328   0.00847  -0.0058  0.0028  0.9341  -7.9020   0.0000   0.2419
  11.300   1.3440   0.01346   0.00866  -0.0060  0.0026  0.9342  -8.0434   0.0000   0.2418
  11.400   1.3547   0.01365   0.00885  -0.0061  0.0025  0.9344  -8.2141   0.0000   0.2417
  11.500   1.3653   0.01384   0.00905  -0.0063  0.0024  0.9346  -8.3851   0.0000   0.2416
  11.600   1.3758   0.01404   0.00926  -0.0065  0.0023  0.9349  -8.5567   0.0000   0.2416
  11.700   1.3863   0.01425   0.00948  -0.0067  0.0022  0.9352  -8.7291   0.0000   0.2415
  11.800   1.3967   0.01446   0.00971  -0.0069  0.0022  0.9355  -8.9023   0.0000   0.2414
  11.900   1.4071   0.01469   0.00995  -0.0070  0.0021  0.9358  -9.0762   0.0000   0.2413
  12.000   1.4174   0.01492   0.01021  -0.0072  0.0021  0.9361  -9.2504   0.0000   0.2413
  12.100   1.4276   0.01517   0.01047  -0.0074  0.0020  0.9365  -9.4248   0.0000   0.2412
  12.200   1.4376   0.01542   0.01075  -0.0076  0.0020  0.9369  -9.5993   0.0000   0.2411
  12.300   1.4477   0.01566   0.01100  -0.0078  0.0020  0.9372  -9.7775   0.0000   0.2410
  12.400   1.4578   0.01587   0.01122  -0.0080  0.0020  0.9375  -9.9607   0.0000   0.2409
  12.500   1.4678   0.01608   0.01145  -0.0081  0.0020  0.9377  -10.1449   0.0000   0.2408
  12.600   1.4779   0.01630   0.01168  -0.0083  0.0020  0.9378  -10.3305   0.0000   0.2407
  12.700   1.4879   0.01653   0.01191  -0.0085  0.0020  0.9380  -10.5172   0.0000   0.2406
  12.800   1.4978   0.01675   0.01215  -0.0087  0.0020  0.9381  -10.7047   0.0000   0.2405
  12.900   1.5076   0.01699   0.01240  -0.0088  0.0020  0.9383  -10.8926   0.0000   0.2404
  13.000   1.5174   0.01722   0.01264  -0.0090  0.0020  0.9385  -11.0809   0.0000   0.2403
  13.100   1.5269   0.01747   0.01290  -0.0092  0.0020  0.9387  -11.2693   0.0000   0.2402
  13.200   1.5364   0.01772   0.01316  -0.0093  0.0020  0.9389  -11.4579   0.0000   0.2400
  13.300   1.5457   0.01797   0.01343  -0.0095  0.0020  0.9390  -11.6465   0.0000   0.2399
  13.400   1.5549   0.01823   0.01370  -0.0096  0.0019  0.9391  -11.8350   0.0000   0.2397
  13.500   1.5640   0.01851   0.01399  -0.0097  0.0019  0.9392  -12.0243   0.0000   0.2396
  13.600   1.5731   0.01880   0.01429  -0.0100  0.0019  0.9391  -12.2141   0.0000   0.2395
  13.700   1.5819   0.01914   0.01464  -0.0103  0.0019  0.9391  -12.4017   0.0000   0.2395
  13.800   1.5904   0.01947   0.01500  -0.0105  0.0019  0.9390  -12.5874   0.0000   0.2394
  13.900   1.5986   0.01981   0.01534  -0.0106  0.0019  0.9389  -12.7716   0.0000   0.2393
  14.000   1.6067   0.02015   0.01569  -0.0108  0.0019  0.9388  -12.9556   0.0000   0.2391
  14.100   1.6147   0.02049   0.01605  -0.0109  0.0019  0.9387  -13.1401   0.0000   0.2390
  14.200   1.6224   0.02083   0.01641  -0.0110  0.0019  0.9386  -13.3229   0.0000   0.2388
  14.300   1.6297   0.02119   0.01678  -0.0110  0.0019  0.9385  -13.5025   0.0000   0.2386
  14.400   1.6365   0.02155   0.01715  -0.0110  0.0019  0.9384  -13.6772   0.0000   0.2383
  14.500   1.6413   0.02192   0.01754  -0.0106  0.0019  0.9382  -13.8327   0.0000   0.2379
  14.600   1.6448   0.02242   0.01805  -0.0103  0.0019  0.9381  -13.9731   0.0000   0.2375
  14.700   1.6487   0.02290   0.01856  -0.0100  0.0019  0.9379  -14.1193   0.0000   0.2371
  14.800   1.6534   0.02335   0.01902  -0.0097  0.0019  0.9378  -14.2752   0.0000   0.2367
  14.900   1.6584   0.02379   0.01948  -0.0095  0.0019  0.9377  -14.4352   0.0000   0.2364
  15.000   1.6635   0.02424   0.01994  -0.0093  0.0018  0.9376  -14.5969   0.0000   0.2360
  15.100   1.6685   0.02469   0.02041  -0.0091  0.0018  0.9374  -14.7586   0.0000   0.2356
  15.200   1.6732   0.02515   0.02089  -0.0088  0.0018  0.9373  -14.9173   0.0000   0.2353
  15.300   1.6776   0.02562   0.02138  -0.0085  0.0018  0.9372  -15.0747   0.0000   0.2349
  15.400   1.6817   0.02614   0.02192  -0.0083  0.0018  0.9371  -15.2267   0.0000   0.2345
  15.500   1.6833   0.02689   0.02269  -0.0082  0.0018  0.9369  -15.3503   0.0000   0.2342
  15.600   1.6865   0.02752   0.02334  -0.0080  0.0018  0.9368  -15.4928   0.0000   0.2339
  15.700   1.6902   0.02810   0.02394  -0.0078  0.0018  0.9367  -15.6431   0.0000   0.2336
  15.800   1.6941   0.02867   0.02453  -0.0076  0.0018  0.9367  -15.7957   0.0000   0.2332
  15.900   1.6978   0.02924   0.02513  -0.0074  0.0018  0.9368  -15.9472   0.0000   0.2329
  16.000   1.7012   0.02982   0.02573  -0.0072  0.0018  0.9369  -16.0955   0.0000   0.2325
  16.100   1.7045   0.03042   0.02635  -0.0069  0.0018  0.9370  -16.2425   0.0000   0.2322
  16.200   1.7076   0.03105   0.02699  -0.0067  0.0018  0.9372  -16.3881   0.0000   0.2318
  16.300   1.7084   0.03192   0.02790  -0.0066  0.0017  0.9373  -16.5042   0.0000   0.2315
  16.400   1.7084   0.03291   0.02891  -0.0066  0.0017  0.9374  -16.6100   0.0000   0.2313
  16.500   1.7104   0.03370   0.02972  -0.0065  0.0017  0.9375  -16.7417   0.0000   0.2310
  16.600   1.7127   0.03445   0.03049  -0.0064  0.0017  0.9376  -16.8789   0.0000   0.2307
  16.700   1.7151   0.03520   0.03126  -0.0063  0.0017  0.9376  -17.0169   0.0000   0.2304
  16.800   1.7174   0.03596   0.03205  -0.0062  0.0017  0.9376  -17.1537   0.0000   0.2301
  16.900   1.7194   0.03676   0.03287  -0.0061  0.0017  0.9376  -17.2874   0.0000   0.2299
  17.000   1.7194   0.03774   0.03388  -0.0061  0.0017  0.9375  -17.3960   0.0000   0.2296
  17.100   1.7158   0.03916   0.03533  -0.0062  0.0017  0.9374  -17.4542   0.0000   0.2295
  17.200   1.7162   0.04016   0.03636  -0.0063  0.0017  0.9373  -17.5663   0.0000   0.2292
  17.300   1.7171   0.04111   0.03734  -0.0063  0.0017  0.9371  -17.6860   0.0000   0.2290
  17.400   1.7181   0.04206   0.03831  -0.0063  0.0017  0.9370  -17.8066   0.0000   0.2288
  17.500   1.7189   0.04305   0.03932  -0.0063  0.0017  0.9369  -17.9250   0.0000   0.2286
  17.600   1.7192   0.04412   0.04042  -0.0064  0.0017  0.9368  -18.0371   0.0000   0.2284
  17.700   1.7133   0.04611   0.04245  -0.0071  0.0017  0.9367  -18.0585   0.0000   0.2285
  17.800   1.7126   0.04737   0.04374  -0.0073  0.0017  0.9365  -18.1542   0.0000   0.2284
  17.900   1.7126   0.04854   0.04493  -0.0075  0.0017  0.9364  -18.2608   0.0000   0.2283
  18.000   1.7126   0.04971   0.04613  -0.0077  0.0016  0.9363  -18.3676   0.0000   0.2282
  18.100   1.7123   0.05093   0.04738  -0.0079  0.0016  0.9362  -18.4693   0.0000   0.2281
  18.200   1.7061   0.05306   0.04955  -0.0087  0.0016  0.9361  -18.4833   0.0000   0.2283
  18.300   1.7016   0.05491   0.05143  -0.0093  0.0016  0.9360  -18.5226   0.0000   0.2284
  18.400   1.6998   0.05633   0.05289  -0.0096  0.0016  0.9359  -18.6015   0.0000   0.2283
  18.500   1.6982   0.05773   0.05431  -0.0099  0.0016  0.9358  -18.6841   0.0000   0.2283
  18.600   1.6964   0.05919   0.05580  -0.0103  0.0016  0.9357  -18.7623   0.0000   0.2282
  18.700   1.6872   0.06188   0.05854  -0.0114  0.0016  0.9356  -18.7257   0.0000   0.2287
  18.800   1.6813   0.06411   0.06081  -0.0123  0.0016  0.9355  -18.7394   0.0000   0.2290
  18.900   1.6786   0.06581   0.06254  -0.0128  0.0016  0.9354  -18.8004   0.0000   0.2290
  19.000   1.6759   0.06749   0.06426  -0.0134  0.0016  0.9353  -18.8621   0.0000   0.2291
  19.100   1.6725   0.06929   0.06609  -0.0140  0.0016  0.9353  -18.9128   0.0000   0.2293
  19.200   1.6573   0.07322   0.07009  -0.0159  0.0016  0.9352  -18.7719   0.0000   0.2302
  19.300   1.6526   0.07532   0.07222  -0.0167  0.0016  0.9351  -18.7974   0.0000   0.2305
  19.400   1.6484   0.07730   0.07424  -0.0175  0.0016  0.9350  -18.8316   0.0000   0.2307
  19.500   1.6435   0.07941   0.07638  -0.0183  0.0016  0.9349  -18.8529   0.0000   0.2310
  19.600   1.6242   0.08419   0.08124  -0.0207  0.0016  0.9348  -18.6339   0.0000   0.2323
  19.700   1.6175   0.08658   0.08366  -0.0217  0.0016  0.9348  -18.6224   0.0000   0.2328
  19.800   1.6105   0.08897   0.08609  -0.0226  0.0016  0.9347  -18.6054   0.0000   0.2332
  19.900   1.5857   0.09473   0.09194  -0.0255  0.0016  0.9346  -18.2816   0.0000   0.2350
  20.000   1.5772   0.09754   0.09479  -0.0267  0.0016  0.9346  -18.2327   0.0000   0.2356


