xflr5 v6.48

 Calculated polar for: HUGHES HELICOPTERS HH-02 AIRFOIL

 1 1 Reynolds number fixed          Mach number fixed         

 xtrf =   1.000 (top)        1.000 (bottom)
 Mach =   0.000     Re =    10.000 e 6     Ncrit =   9.000

  alpha     CL        CD       CDp       Cm    Top Xtr Bot Xtr   Cpmin    Chinge    XCp    
 ------- -------- --------- --------- -------- ------- ------- -------- --------- ---------
 -19.200  -1.6512   0.07543   0.07349   0.0248  0.8379  0.0023  -31.4803   0.0000   0.2401
 -19.100  -1.7102   0.06323   0.06115   0.0160  0.8381  0.0022  -32.8030   0.0000   0.2347
 -19.000  -1.7370   0.05694   0.05476   0.0112  0.8366  0.0021  -33.3382   0.0000   0.2321
 -18.900  -1.7573   0.05186   0.04960   0.0071  0.8347  0.0021  -33.7127   0.0000   0.2299
 -18.800  -1.7733   0.04758   0.04525   0.0034  0.8324  0.0021  -33.9826   0.0000   0.2281
 -18.700  -1.7863   0.04385   0.04144   0.0000  0.8296  0.0021  -34.1825   0.0000   0.2265
 -18.600  -1.8002   0.03922   0.03671  -0.0061  0.8259  0.0021  -34.4380   0.0000   0.2234
 -18.500  -1.8080   0.03748   0.03490  -0.0065  0.8226  0.0021  -34.4718   0.0000   0.2234
 -18.400  -1.8171   0.03606   0.03343  -0.0059  0.8189  0.0021  -34.5114   0.0000   0.2240
 -18.300  -1.8250   0.03495   0.03227  -0.0047  0.8148  0.0021  -34.5187   0.0000   0.2249
 -18.200  -1.8334   0.03408   0.03136  -0.0028  0.8106  0.0021  -34.5235   0.0000   0.2261
 -18.100  -1.8372   0.03324   0.03047  -0.0015  0.8071  0.0021  -34.4553   0.0000   0.2270
 -18.000  -1.8382   0.03242   0.02960  -0.0005  0.8042  0.0022  -34.3425   0.0000   0.2277
 -17.900  -1.8375   0.03163   0.02877   0.0002  0.8018  0.0022  -34.2008   0.0000   0.2283
 -17.800  -1.8359   0.03088   0.02798   0.0010  0.8000  0.0022  -34.0427   0.0000   0.2289
 -17.700  -1.8336   0.03018   0.02724   0.0016  0.7999  0.0022  -33.8707   0.0000   0.2295
 -17.600  -1.8305   0.02951   0.02653   0.0023  0.7998  0.0023  -33.6868   0.0000   0.2300
 -17.500  -1.8269   0.02887   0.02586   0.0029  0.7998  0.0023  -33.4922   0.0000   0.2306
 -17.400  -1.8228   0.02827   0.02522   0.0035  0.7997  0.0023  -33.2880   0.0000   0.2311
 -17.300  -1.8181   0.02770   0.02462   0.0041  0.7995  0.0024  -33.0750   0.0000   0.2316
 -17.200  -1.8130   0.02715   0.02404   0.0046  0.7994  0.0024  -32.8539   0.0000   0.2321
 -17.100  -1.8076   0.02664   0.02350   0.0051  0.7993  0.0025  -32.6255   0.0000   0.2326
 -17.000  -1.8017   0.02614   0.02298   0.0056  0.7991  0.0025  -32.3909   0.0000   0.2331
 -16.900  -1.7956   0.02567   0.02248   0.0061  0.7990  0.0026  -32.1509   0.0000   0.2335
 -16.800  -1.7892   0.02522   0.02200   0.0065  0.7988  0.0026  -31.9062   0.0000   0.2340
 -16.700  -1.7826   0.02478   0.02154   0.0070  0.7986  0.0026  -31.6574   0.0000   0.2344
 -16.600  -1.7757   0.02436   0.02110   0.0074  0.7984  0.0027  -31.4049   0.0000   0.2349
 -16.500  -1.7686   0.02395   0.02067   0.0078  0.7982  0.0027  -31.1492   0.0000   0.2353
 -16.400  -1.7613   0.02356   0.02025   0.0082  0.7979  0.0027  -30.8905   0.0000   0.2357
 -16.300  -1.7538   0.02318   0.01986   0.0086  0.7977  0.0028  -30.6291   0.0000   0.2362
 -16.200  -1.7462   0.02281   0.01947   0.0090  0.7974  0.0028  -30.3653   0.0000   0.2366
 -16.100  -1.7383   0.02246   0.01910   0.0093  0.7970  0.0028  -30.0993   0.0000   0.2370
 -16.000  -1.7304   0.02212   0.01874   0.0096  0.7966  0.0029  -29.8314   0.0000   0.2374
 -15.900  -1.7222   0.02180   0.01840   0.0100  0.7962  0.0029  -29.5620   0.0000   0.2378
 -15.800  -1.7140   0.02148   0.01806   0.0103  0.7956  0.0029  -29.2910   0.0000   0.2382
 -15.700  -1.7056   0.02118   0.01774   0.0106  0.7950  0.0030  -29.0186   0.0000   0.2386
 -15.600  -1.6970   0.02088   0.01743   0.0109  0.7942  0.0030  -28.7452   0.0000   0.2390
 -15.500  -1.6884   0.02059   0.01713   0.0112  0.7932  0.0030  -28.4710   0.0000   0.2394
 -15.400  -1.6797   0.02032   0.01683   0.0115  0.7919  0.0030  -28.1960   0.0000   0.2398
 -15.300  -1.6708   0.02005   0.01654   0.0118  0.7904  0.0031  -27.9205   0.0000   0.2402
 -15.200  -1.6619   0.01979   0.01626   0.0120  0.7886  0.0031  -27.6445   0.0000   0.2406
 -15.100  -1.6529   0.01953   0.01598   0.0123  0.7865  0.0031  -27.3682   0.0000   0.2409
 -15.000  -1.6437   0.01929   0.01572   0.0125  0.7842  0.0031  -27.0917   0.0000   0.2413
 -14.900  -1.6345   0.01905   0.01545   0.0128  0.7819  0.0032  -26.8150   0.0000   0.2417
 -14.800  -1.6253   0.01881   0.01520   0.0130  0.7794  0.0032  -26.5383   0.0000   0.2421
 -14.700  -1.6159   0.01858   0.01495   0.0132  0.7769  0.0032  -26.2617   0.0000   0.2424
 -14.600  -1.6065   0.01836   0.01471   0.0134  0.7743  0.0032  -25.9853   0.0000   0.2428
 -14.500  -1.5970   0.01814   0.01447   0.0137  0.7716  0.0032  -25.7092   0.0000   0.2431
 -14.400  -1.5875   0.01793   0.01424   0.0139  0.7690  0.0033  -25.4336   0.0000   0.2435
 -14.300  -1.5779   0.01772   0.01401   0.0141  0.7663  0.0033  -25.1584   0.0000   0.2439
 -14.200  -1.5683   0.01751   0.01379   0.0143  0.7636  0.0033  -24.8836   0.0000   0.2442
 -14.100  -1.5586   0.01731   0.01357   0.0145  0.7609  0.0033  -24.6093   0.0000   0.2446
 -14.000  -1.5488   0.01711   0.01335   0.0147  0.7583  0.0033  -24.3356   0.0000   0.2449
 -13.900  -1.5390   0.01692   0.01314   0.0148  0.7558  0.0033  -24.0625   0.0000   0.2453
 -13.800  -1.5292   0.01672   0.01294   0.0150  0.7535  0.0033  -23.7900   0.0000   0.2456
 -13.700  -1.5193   0.01654   0.01274   0.0152  0.7514  0.0034  -23.5182   0.0000   0.2460
 -13.600  -1.5094   0.01635   0.01254   0.0154  0.7500  0.0034  -23.2472   0.0000   0.2463
 -13.500  -1.4994   0.01617   0.01234   0.0156  0.7500  0.0034  -22.9771   0.0000   0.2467
 -13.400  -1.4894   0.01599   0.01215   0.0157  0.7499  0.0034  -22.7078   0.0000   0.2470
 -13.300  -1.4794   0.01581   0.01196   0.0159  0.7499  0.0034  -22.4394   0.0000   0.2474
 -13.200  -1.4693   0.01563   0.01178   0.0161  0.7499  0.0034  -22.1718   0.0000   0.2477
 -13.100  -1.4592   0.01546   0.01160   0.0162  0.7498  0.0034  -21.9051   0.0000   0.2481
 -13.000  -1.4491   0.01529   0.01141   0.0164  0.7498  0.0034  -21.6393   0.0000   0.2484
 -12.900  -1.4389   0.01512   0.01123   0.0165  0.7498  0.0034  -21.3745   0.0000   0.2487
 -12.800  -1.4287   0.01496   0.01106   0.0167  0.7497  0.0034  -21.1107   0.0000   0.2491
 -12.700  -1.4184   0.01480   0.01089   0.0168  0.7497  0.0034  -20.8479   0.0000   0.2494
 -12.600  -1.4081   0.01464   0.01072   0.0170  0.7496  0.0034  -20.5861   0.0000   0.2498
 -12.500  -1.3978   0.01448   0.01056   0.0171  0.7496  0.0034  -20.3254   0.0000   0.2501
 -12.400  -1.3875   0.01432   0.01039   0.0172  0.7496  0.0034  -20.0657   0.0000   0.2505
 -12.300  -1.3771   0.01417   0.01023   0.0174  0.7495  0.0034  -19.8072   0.0000   0.2508
 -12.200  -1.3667   0.01402   0.01007   0.0175  0.7495  0.0034  -19.5498   0.0000   0.2511
 -12.100  -1.3562   0.01387   0.00992   0.0176  0.7494  0.0035  -19.2936   0.0000   0.2515
 -12.000  -1.3458   0.01372   0.00976   0.0177  0.7494  0.0035  -19.0385   0.0000   0.2518
 -11.900  -1.3353   0.01358   0.00961   0.0178  0.7493  0.0035  -18.7847   0.0000   0.2522
 -11.800  -1.3248   0.01343   0.00946   0.0180  0.7493  0.0035  -18.5320   0.0000   0.2525
 -11.700  -1.3142   0.01329   0.00931   0.0181  0.7492  0.0035  -18.2806   0.0000   0.2528
 -11.600  -1.3036   0.01315   0.00916   0.0182  0.7492  0.0035  -18.0305   0.0000   0.2532
 -11.500  -1.2930   0.01301   0.00902   0.0183  0.7491  0.0035  -17.7816   0.0000   0.2535
 -11.400  -1.2824   0.01288   0.00887   0.0184  0.7491  0.0035  -17.5341   0.0000   0.2539
 -11.300  -1.2718   0.01274   0.00873   0.0185  0.7490  0.0035  -17.2878   0.0000   0.2542
 -11.200  -1.2611   0.01261   0.00859   0.0186  0.7489  0.0035  -17.0429   0.0000   0.2545
 -11.100  -1.2504   0.01248   0.00845   0.0187  0.7488  0.0035  -16.7993   0.0000   0.2549
 -11.000  -1.2397   0.01235   0.00832   0.0188  0.7488  0.0035  -16.5571   0.0000   0.2552
 -10.900  -1.2290   0.01222   0.00818   0.0189  0.7486  0.0035  -16.3163   0.0000   0.2556
 -10.800  -1.2182   0.01209   0.00805   0.0190  0.7485  0.0035  -16.0768   0.0000   0.2559
 -10.700  -1.2075   0.01196   0.00791   0.0191  0.7484  0.0035  -15.8388   0.0000   0.2562
 -10.600  -1.1967   0.01184   0.00778   0.0191  0.7483  0.0035  -15.6022   0.0000   0.2566
 -10.500  -1.1859   0.01171   0.00765   0.0192  0.7481  0.0035  -15.3670   0.0000   0.2569
 -10.400  -1.1750   0.01159   0.00752   0.0193  0.7479  0.0035  -15.1332   0.0000   0.2573
 -10.300  -1.1642   0.01147   0.00739   0.0194  0.7477  0.0035  -14.9009   0.0000   0.2576
 -10.200  -1.1533   0.01135   0.00727   0.0195  0.7475  0.0035  -14.6701   0.0000   0.2580
 -10.100  -1.1424   0.01123   0.00714   0.0195  0.7473  0.0035  -14.4407   0.0000   0.2583
 -10.000  -1.1316   0.01107   0.00697   0.0196  0.7471  0.0035  -14.2196   0.0000   0.2587
  -9.900  -1.1208   0.01092   0.00680   0.0197  0.7469  0.0035  -13.9997   0.0000   0.2591
  -9.800  -1.1100   0.01077   0.00663   0.0198  0.7467  0.0036  -13.7805   0.0000   0.2594
  -9.700  -1.0991   0.01062   0.00648   0.0199  0.7464  0.0036  -13.5622   0.0000   0.2598
  -9.600  -1.0882   0.01049   0.00633   0.0199  0.7461  0.0036  -13.3449   0.0000   0.2601
  -9.500  -1.0772   0.01035   0.00618   0.0200  0.7458  0.0037  -13.1287   0.0000   0.2605
  -9.400  -1.0662   0.01022   0.00604   0.0201  0.7455  0.0037  -12.9135   0.0000   0.2609
  -9.300  -1.0552   0.01010   0.00591   0.0201  0.7451  0.0037  -12.6995   0.0000   0.2613
  -9.200  -1.0442   0.00998   0.00577   0.0202  0.7446  0.0037  -12.4867   0.0000   0.2616
  -9.100  -1.0332   0.00986   0.00565   0.0202  0.7441  0.0038  -12.2751   0.0000   0.2620
  -9.000  -1.0221   0.00974   0.00552   0.0203  0.7434  0.0038  -12.0649   0.0000   0.2624
  -8.900  -1.0110   0.00963   0.00540   0.0203  0.7426  0.0039  -11.8559   0.0000   0.2627
  -8.800  -0.9999   0.00952   0.00528   0.0204  0.7416  0.0039  -11.6483   0.0000   0.2631
  -8.700  -0.9888   0.00941   0.00516   0.0204  0.7403  0.0039  -11.4421   0.0000   0.2635
  -8.600  -0.9776   0.00930   0.00504   0.0205  0.7387  0.0040  -11.2372   0.0000   0.2639
  -8.500  -0.9664   0.00920   0.00493   0.0205  0.7367  0.0040  -11.0336   0.0000   0.2643
  -8.400  -0.9552   0.00910   0.00482   0.0206  0.7344  0.0041  -10.8312   0.0000   0.2647
  -8.300  -0.9440   0.00901   0.00471   0.0206  0.7317  0.0042  -10.6301   0.0000   0.2651
  -8.200  -0.9328   0.00891   0.00460   0.0206  0.7289  0.0042  -10.4302   0.0000   0.2654
  -8.100  -0.9215   0.00882   0.00450   0.0206  0.7258  0.0043  -10.2314   0.0000   0.2658
  -8.000  -0.9102   0.00874   0.00440   0.0206  0.7225  0.0044  -10.0340   0.0000   0.2662
  -7.900  -0.8989   0.00865   0.00431   0.0207  0.7189  0.0044  -9.8379   0.0000   0.2666
  -7.800  -0.8876   0.00856   0.00421   0.0207  0.7151  0.0045  -9.6433   0.0000   0.2670
  -7.700  -0.8763   0.00848   0.00412   0.0207  0.7110  0.0046  -9.4502   0.0000   0.2674
  -7.600  -0.8650   0.00840   0.00404   0.0207  0.7069  0.0047  -9.2585   0.0000   0.2678
  -7.500  -0.8536   0.00832   0.00395   0.0207  0.7034  0.0047  -9.0684   0.0000   0.2683
  -7.400  -0.8423   0.00825   0.00387   0.0207  0.7006  0.0048  -8.8797   0.0000   0.2687
  -7.300  -0.8309   0.00817   0.00380   0.0207  0.6999  0.0048  -8.6928   0.0000   0.2691
  -7.200  -0.8196   0.00810   0.00372   0.0207  0.6997  0.0049  -8.5073   0.0000   0.2696
  -7.100  -0.8082   0.00802   0.00365   0.0208  0.6996  0.0049  -8.3233   0.0000   0.2700
  -7.000  -0.7969   0.00796   0.00358   0.0208  0.6994  0.0050  -8.1408   0.0000   0.2705
  -6.900  -0.7855   0.00789   0.00352   0.0208  0.6992  0.0050  -7.9599   0.0000   0.2710
  -6.800  -0.7741   0.00780   0.00342   0.0208  0.6990  0.0052  -7.7840   0.0000   0.2715
  -6.700  -0.7627   0.00771   0.00334   0.0208  0.6988  0.0055  -7.6087   0.0000   0.2720
  -6.600  -0.7513   0.00764   0.00326   0.0208  0.6985  0.0057  -7.4338   0.0000   0.2725
  -6.500  -0.7399   0.00756   0.00319   0.0208  0.6983  0.0059  -7.2602   0.0000   0.2730
  -6.400  -0.7285   0.00749   0.00312   0.0208  0.6979  0.0060  -7.0879   0.0000   0.2735
  -6.300  -0.7170   0.00743   0.00306   0.0208  0.6976  0.0062  -6.9171   0.0000   0.2740
  -6.200  -0.7056   0.00737   0.00300   0.0208  0.6971  0.0063  -6.7479   0.0000   0.2745
  -6.100  -0.6941   0.00731   0.00295   0.0208  0.6966  0.0064  -6.5803   0.0000   0.2751
  -6.000  -0.6826   0.00726   0.00289   0.0208  0.6960  0.0064  -6.4236   0.0000   0.2757
  -5.900  -0.6711   0.00720   0.00284   0.0208  0.6952  0.0064  -6.2687   0.0000   0.2762
  -5.800  -0.6596   0.00715   0.00278   0.0208  0.6941  0.0065  -6.1152   0.0000   0.2768
  -5.700  -0.6481   0.00711   0.00273   0.0207  0.6926  0.0065  -5.9630   0.0000   0.2774
  -5.600  -0.6366   0.00704   0.00266   0.0207  0.6905  0.0067  -5.8260   0.0000   0.2780
  -5.500  -0.6251   0.00698   0.00259   0.0207  0.6877  0.0070  -5.6918   0.0000   0.2787
  -5.400  -0.6135   0.00692   0.00253   0.0207  0.6846  0.0072  -5.5575   0.0000   0.2793
  -5.300  -0.6019   0.00687   0.00247   0.0206  0.6814  0.0074  -5.4236   0.0000   0.2800
  -5.200  -0.5903   0.00682   0.00241   0.0206  0.6780  0.0076  -5.2907   0.0000   0.2806
  -5.100  -0.5787   0.00678   0.00236   0.0206  0.6743  0.0077  -5.1591   0.0000   0.2813
  -5.000  -0.5671   0.00673   0.00231   0.0205  0.6705  0.0078  -5.0291   0.0000   0.2820
  -4.900  -0.5555   0.00669   0.00226   0.0205  0.6664  0.0079  -4.9003   0.0000   0.2828
  -4.800  -0.5439   0.00665   0.00222   0.0205  0.6611  0.0079  -4.7728   0.0000   0.2835
  -4.700  -0.5323   0.00661   0.00217   0.0204  0.6543  0.0080  -4.6464   0.0000   0.2843
  -4.600  -0.5207   0.00656   0.00212   0.0204  0.6499  0.0082  -4.5235   0.0000   0.2852
  -4.500  -0.5091   0.00650   0.00206   0.0204  0.6492  0.0086  -4.4020   0.0000   0.2861
  -4.400  -0.4975   0.00645   0.00201   0.0203  0.6480  0.0090  -4.2807   0.0000   0.2870
  -4.300  -0.4859   0.00641   0.00197   0.0203  0.6458  0.0092  -4.1602   0.0000   0.2879
  -4.200  -0.4742   0.00638   0.00192   0.0202  0.6400  0.0095  -4.0404   0.0000   0.2889
  -4.100  -0.4623   0.00637   0.00188   0.0201  0.6302  0.0097  -3.9212   0.0000   0.2898
  -4.000  -0.4505   0.00635   0.00184   0.0200  0.6202  0.0099  -3.8033   0.0000   0.2907
  -3.900  -0.4388   0.00633   0.00181   0.0200  0.6119  0.0100  -3.6873   0.0000   0.2918
  -3.800  -0.4271   0.00629   0.00177   0.0199  0.6060  0.0102  -3.5735   0.0000   0.2930
  -3.700  -0.4154   0.00625   0.00172   0.0199  0.6013  0.0108  -3.4619   0.0000   0.2942
  -3.600  -0.4038   0.00620   0.00168   0.0198  0.5997  0.0113  -3.3510   0.0000   0.2955
  -3.500  -0.3921   0.00616   0.00164   0.0198  0.5993  0.0117  -3.2411   0.0000   0.2969
  -3.400  -0.3805   0.00612   0.00161   0.0197  0.5989  0.0120  -3.1325   0.0000   0.2983
  -3.300  -0.3689   0.00608   0.00158   0.0197  0.5985  0.0122  -3.0250   0.0000   0.2999
  -3.200  -0.3572   0.00605   0.00155   0.0197  0.5980  0.0124  -2.9189   0.0000   0.3015
  -3.100  -0.3455   0.00602   0.00152   0.0196  0.5974  0.0125  -2.8140   0.0000   0.3033
  -3.000  -0.3339   0.00598   0.00148   0.0196  0.5966  0.0128  -2.7111   0.0000   0.3052
  -2.900  -0.3222   0.00595   0.00145   0.0195  0.5955  0.0136  -2.6099   0.0000   0.3072
  -2.800  -0.3105   0.00591   0.00142   0.0195  0.5933  0.0143  -2.5096   0.0000   0.3093
  -2.700  -0.2987   0.00589   0.00138   0.0194  0.5889  0.0149  -2.4101   0.0000   0.3115
  -2.600  -0.2868   0.00588   0.00136   0.0193  0.5826  0.0153  -2.3116   0.0000   0.3138
  -2.500  -0.2750   0.00588   0.00133   0.0192  0.5749  0.0157  -2.2143   0.0000   0.3163
  -2.400  -0.2631   0.00587   0.00131   0.0191  0.5664  0.0159  -2.1186   0.0000   0.3190
  -2.300  -0.2513   0.00585   0.00129   0.0190  0.5578  0.0161  -2.0311   0.0000   0.3221
  -2.200  -0.2396   0.00583   0.00126   0.0189  0.5509  0.0171  -1.9497   0.0000   0.3255
  -2.100  -0.2279   0.00579   0.00123   0.0189  0.5496  0.0182  -1.8695   0.0000   0.3293
  -2.000  -0.2162   0.00575   0.00120   0.0188  0.5492  0.0191  -1.7971   0.0000   0.3335
  -1.900  -0.2045   0.00572   0.00118   0.0188  0.5488  0.0198  -1.7254   0.0000   0.3382
  -1.800  -0.1928   0.00569   0.00115   0.0187  0.5483  0.0207  -1.6548   0.0000   0.3434
  -1.700  -0.1811   0.00565   0.00113   0.0186  0.5477  0.0229  -1.5855   0.0000   0.3493
  -1.600  -0.1694   0.00561   0.00110   0.0186  0.5469  0.0243  -1.5166   0.0000   0.3560
  -1.500  -0.1576   0.00558   0.00108   0.0185  0.5459  0.0249  -1.4484   0.0000   0.3637
  -1.400  -0.1459   0.00556   0.00106   0.0184  0.5444  0.0272  -1.3814   0.0000   0.3726
  -1.300  -0.1341   0.00553   0.00104   0.0184  0.5416  0.0302  -1.3153   0.0000   0.3830
  -1.200  -0.1223   0.00551   0.00102   0.0183  0.5378  0.0327  -1.2498   0.0000   0.3953
  -1.100  -0.1104   0.00550   0.00100   0.0181  0.5329  0.0340  -1.1849   0.0000   0.4102
  -1.000  -0.0985   0.00550   0.00099   0.0180  0.5274  0.0346  -1.1208   0.0000   0.4287
  -0.900  -0.0866   0.00551   0.00098   0.0179  0.5206  0.0349  -1.0577   0.0000   0.4522
  -0.800  -0.0747   0.00551   0.00097   0.0178  0.5119  0.0364  -0.9957   0.0000   0.4833
  -0.700  -0.0629   0.00550   0.00096   0.0177  0.5010  0.0395  -0.9347   0.0000   0.5261
  -0.600  -0.0511   0.00548   0.00094   0.0176  0.4988  0.0427  -0.8793   0.0000   0.5887
  -0.500  -0.0393   0.00546   0.00093   0.0175  0.4966  0.0458  -0.8291   0.0000   0.6888
  -0.400  -0.0273   0.00546   0.00092   0.0174  0.4894  0.0491  -0.7790   0.0000   0.8767
  -0.300  -0.0151   0.00548   0.00091   0.0171  0.4739  0.0605  -0.7293   0.0000   1.3724
  -0.200  -0.0030   0.00546   0.00090   0.0169  0.4596  0.0727  -0.6809   0.0000   5.7590
  -0.100   0.0088   0.00542   0.00089   0.0168  0.4502  0.0850  -0.6334   0.0000  -1.6443
   0.000   0.0206   0.00535   0.00086   0.0167  0.4489  0.0996  -0.5868   0.0000  -0.5568
   0.100   0.0323   0.00529   0.00085   0.0166  0.4476  0.1188  -0.5407   0.0000  -0.2607
   0.200   0.0442   0.00526   0.00084   0.0165  0.4456  0.1265  -0.4966   0.0000  -0.1224
   0.300   0.0561   0.00518   0.00082   0.0163  0.4412  0.1471  -0.4557   0.0000  -0.0409
   0.400   0.0683   0.00522   0.00083   0.0161  0.4284  0.1598  -0.4611   0.0000   0.0144
   0.500   0.0804   0.00523   0.00083   0.0159  0.4143  0.1769  -0.4727   0.0000   0.0522
   0.600   0.0923   0.00518   0.00083   0.0157  0.4004  0.1931  -0.4842   0.0000   0.0792
   0.700   0.1042   0.00516   0.00082   0.0156  0.3967  0.2001  -0.4957   0.0000   0.0996
   0.800   0.1164   0.00515   0.00083   0.0153  0.3865  0.2333  -0.5074   0.0000   0.1172
   0.900   0.1288   0.00518   0.00084   0.0150  0.3670  0.2485  -0.5191   0.0000   0.1323
   1.000   0.1408   0.00513   0.00084   0.0148  0.3495  0.2843  -0.5316   0.0000   0.1435
   1.100   0.1527   0.00509   0.00085   0.0146  0.3451  0.3102  -0.5446   0.0000   0.1528
   1.200   0.1647   0.00503   0.00085   0.0143  0.3374  0.3451  -0.5587   0.0000   0.1612
   1.300   0.1768   0.00505   0.00087   0.0141  0.3294  0.3583  -0.5738   0.0000   0.1682
   1.500   0.2007   0.00500   0.00088   0.0138  0.3131  0.3997  -0.6039   0.0000   0.1794
   1.600   0.2126   0.00497   0.00090   0.0136  0.3034  0.4252  -0.6190   0.0000   0.1839
   1.700   0.2243   0.00492   0.00089   0.0135  0.2992  0.4441  -0.6342   0.0000   0.1877
   1.800   0.2362   0.00493   0.00090   0.0133  0.2971  0.4481  -0.6495   0.0000   0.1912
   1.900   0.2483   0.00497   0.00092   0.0132  0.2912  0.4497  -0.6649   0.0000   0.1947
   2.000   0.2605   0.00504   0.00095   0.0129  0.2806  0.4624  -0.6805   0.0000   0.1981
   2.100   0.2726   0.00504   0.00097   0.0126  0.2706  0.4838  -0.6960   0.0000   0.2011
   2.200   0.2845   0.00502   0.00098   0.0125  0.2608  0.4983  -0.7115   0.0000   0.2036
   2.300   0.2964   0.00503   0.00100   0.0123  0.2514  0.5114  -0.7290   0.0000   0.2057
   2.400   0.3082   0.00502   0.00100   0.0122  0.2494  0.5239  -0.7466   0.0000   0.2076
   2.500   0.3200   0.00501   0.00101   0.0121  0.2488  0.5314  -0.7643   0.0000   0.2094
   2.600   0.3317   0.00500   0.00103   0.0120  0.2480  0.5402  -0.7821   0.0000   0.2110
   2.700   0.3436   0.00500   0.00104   0.0119  0.2470  0.5455  -0.8001   0.0000   0.2126
   2.800   0.3555   0.00502   0.00105   0.0117  0.2448  0.5476  -0.8181   0.0000   0.2140
   2.900   0.3675   0.00507   0.00108   0.0115  0.2394  0.5487  -0.8377   0.0000   0.2156
   3.000   0.3798   0.00516   0.00111   0.0112  0.2287  0.5495  -0.8582   0.0000   0.2173
   3.100   0.3920   0.00523   0.00115   0.0110  0.2157  0.5515  -0.8786   0.0000   0.2188
   3.200   0.4039   0.00526   0.00117   0.0108  0.2021  0.5622  -0.8991   0.0000   0.2200
   3.300   0.4158   0.00526   0.00118   0.0107  0.1992  0.5751  -0.9197   0.0000   0.2210
   3.400   0.4276   0.00524   0.00120   0.0105  0.1983  0.5873  -0.9430   0.0000   0.2220
   3.500   0.4394   0.00524   0.00122   0.0104  0.1972  0.5951  -0.9665   0.0000   0.2229
   3.600   0.4513   0.00527   0.00124   0.0102  0.1949  0.5983  -0.9902   0.0000   0.2238
   3.700   0.4634   0.00534   0.00128   0.0100  0.1885  0.6009  -1.0142   0.0000   0.2248
   3.800   0.4757   0.00541   0.00132   0.0097  0.1797  0.6161  -1.0383   0.0000   0.2259
   3.900   0.4877   0.00545   0.00136   0.0095  0.1719  0.6302  -1.0624   0.0000   0.2268
   4.000   0.4996   0.00546   0.00139   0.0093  0.1658  0.6404  -1.0866   0.0000   0.2275
   4.100   0.5114   0.00548   0.00141   0.0092  0.1596  0.6450  -1.1108   0.0000   0.2282
   4.200   0.5233   0.00550   0.00144   0.0090  0.1534  0.6467  -1.1405   0.0000   0.2288
   4.300   0.5351   0.00553   0.00145   0.0089  0.1498  0.6476  -1.1739   0.0000   0.2294
   4.400   0.5470   0.00555   0.00147   0.0087  0.1488  0.6483  -1.2075   0.0000   0.2299
   4.500   0.5589   0.00559   0.00150   0.0086  0.1471  0.6489  -1.2415   0.0000   0.2305
   4.600   0.5711   0.00569   0.00156   0.0083  0.1422  0.6494  -1.2759   0.0000   0.2312
   4.700   0.5834   0.00580   0.00162   0.0080  0.1350  0.6498  -1.3106   0.0000   0.2320
   4.800   0.5954   0.00587   0.00166   0.0077  0.1275  0.6512  -1.3453   0.0000   0.2326
   4.900   0.6073   0.00590   0.00169   0.0076  0.1247  0.6555  -1.3802   0.0000   0.2330
   5.000   0.6191   0.00593   0.00171   0.0074  0.1241  0.6607  -1.4153   0.0000   0.2334
   5.100   0.6309   0.00596   0.00174   0.0073  0.1230  0.6658  -1.4506   0.0000   0.2338
   5.200   0.6430   0.00603   0.00179   0.0070  0.1190  0.6703  -1.4864   0.0000   0.2343
   5.300   0.6551   0.00613   0.00186   0.0067  0.1110  0.6745  -1.5224   0.0000   0.2348
   5.400   0.6671   0.00619   0.00190   0.0065  0.1022  0.6783  -1.5590   0.0000   0.2353
   5.500   0.6789   0.00622   0.00193   0.0063  0.0991  0.6820  -1.6019   0.0000   0.2356
   5.600   0.6909   0.00627   0.00198   0.0061  0.0962  0.6855  -1.6453   0.0000   0.2360
   5.700   0.7030   0.00637   0.00205   0.0058  0.0907  0.6888  -1.6893   0.0000   0.2364
   5.800   0.7149   0.00644   0.00210   0.0056  0.0857  0.6919  -1.7372   0.0000   0.2368
   5.900   0.7268   0.00649   0.00214   0.0054  0.0806  0.6946  -1.7854   0.0000   0.2371
   6.000   0.7386   0.00652   0.00217   0.0052  0.0793  0.6967  -1.8340   0.0000   0.2373
   6.100   0.7505   0.00658   0.00222   0.0051  0.0775  0.6984  -1.8831   0.0000   0.2376
   6.200   0.7626   0.00669   0.00230   0.0048  0.0723  0.6997  -1.9328   0.0000   0.2380
   6.400   0.7863   0.00682   0.00241   0.0043  0.0642  0.7136  -2.0367   0.0000   0.2385
   6.500   0.7982   0.00687   0.00246   0.0041  0.0623  0.7233  -2.1069   0.0000   0.2388
   6.600   0.8102   0.00696   0.00254   0.0038  0.0574  0.7329  -2.2040   0.0000   0.2391
   6.700   0.8221   0.00703   0.00260   0.0036  0.0516  0.7421  -2.3026   0.0000   0.2393
   6.800   0.8339   0.00707   0.00266   0.0034  0.0491  0.7506  -2.4025   0.0000   0.2395
   6.900   0.8457   0.00709   0.00273   0.0031  0.0461  0.7868  -2.5035   0.0000   0.2398
   7.000   0.8565   0.00690   0.00282   0.0031  0.0429  0.9162  -2.6007   0.0000   0.2398
   7.100   0.8683   0.00698   0.00288   0.0029  0.0404  0.9184  -2.7045   0.0000   0.2400
   7.200   0.8800   0.00704   0.00294   0.0027  0.0379  0.9193  -2.8098   0.0000   0.2401
   7.300   0.8917   0.00710   0.00299   0.0025  0.0354  0.9200  -2.9166   0.0000   0.2402
   7.400   0.9034   0.00716   0.00304   0.0023  0.0347  0.9204  -3.0245   0.0000   0.2403
   7.500   0.9152   0.00722   0.00310   0.0022  0.0343  0.9207  -3.1341   0.0000   0.2404
   7.600   0.9269   0.00729   0.00316   0.0020  0.0335  0.9210  -3.2451   0.0000   0.2405
   7.700   0.9387   0.00741   0.00325   0.0017  0.0310  0.9213  -3.3575   0.0000   0.2407
   7.800   0.9506   0.00755   0.00336   0.0014  0.0276  0.9215  -3.4709   0.0000   0.2409
   7.900   0.9623   0.00764   0.00343   0.0012  0.0248  0.9218  -3.5859   0.0000   0.2410
   8.000   0.9740   0.00774   0.00351   0.0010  0.0237  0.9219  -3.7022   0.0000   0.2411
   8.100   0.9858   0.00786   0.00362   0.0008  0.0221  0.9221  -3.8198   0.0000   0.2413
   8.200   0.9975   0.00797   0.00371   0.0005  0.0203  0.9223  -3.9385   0.0000   0.2414
   8.300   1.0091   0.00805   0.00378   0.0004  0.0197  0.9224  -4.0589   0.0000   0.2414
   8.400   1.0208   0.00814   0.00386   0.0002  0.0189  0.9225  -4.1805   0.0000   0.2415
   8.500   1.0325   0.00827   0.00397  -0.0001  0.0173  0.9226  -4.3030   0.0000   0.2416
   8.600   1.0441   0.00836   0.00405  -0.0003  0.0159  0.9227  -4.4269   0.0000   0.2417
   8.700   1.0557   0.00846   0.00414  -0.0005  0.0151  0.9228  -4.5523   0.0000   0.2417
   8.800   1.0673   0.00859   0.00425  -0.0007  0.0135  0.9230  -4.6784   0.0000   0.2418
   8.900   1.0788   0.00869   0.00434  -0.0009  0.0122  0.9231  -4.8058   0.0000   0.2418
   9.000   1.0904   0.00881   0.00445  -0.0011  0.0112  0.9232  -4.9344   0.0000   0.2419
   9.100   1.1019   0.00894   0.00457  -0.0013  0.0100  0.9234  -5.0637   0.0000   0.2419
   9.200   1.1134   0.00905   0.00467  -0.0015  0.0093  0.9235  -5.1947   0.0000   0.2419
   9.300   1.1248   0.00919   0.00480  -0.0017  0.0082  0.9236  -5.3260   0.0000   0.2420
   9.400   1.1362   0.00931   0.00491  -0.0019  0.0075  0.9237  -5.4588   0.0000   0.2420
   9.500   1.1476   0.00945   0.00504  -0.0021  0.0065  0.9238  -5.5921   0.0000   0.2420
   9.600   1.1590   0.00958   0.00516  -0.0023  0.0058  0.9239  -5.7269   0.0000   0.2420
   9.700   1.1703   0.00972   0.00530  -0.0025  0.0049  0.9240  -5.8621   0.0000   0.2420
   9.800   1.1816   0.00985   0.00542  -0.0027  0.0044  0.9241  -5.9990   0.0000   0.2420
   9.900   1.1929   0.00999   0.00556  -0.0029  0.0038  0.9241  -6.1358   0.0000   0.2420
  10.000   1.2042   0.01011   0.00567  -0.0030  0.0034  0.9241  -6.2738   0.0000   0.2419
  10.100   1.2155   0.01023   0.00579  -0.0032  0.0032  0.9242  -6.4135   0.0000   0.2419
  10.200   1.2268   0.01036   0.00592  -0.0034  0.0029  0.9242  -6.5534   0.0000   0.2419
  10.300   1.2380   0.01050   0.00606  -0.0036  0.0026  0.9242  -6.6915   0.0000   0.2419
  10.400   1.2491   0.01065   0.00621  -0.0038  0.0022  0.9243  -6.8148   0.0000   0.2418
  13.500   1.5800   0.01545   0.01114  -0.0086  0.0015  0.9267  -12.3088   0.0000   0.2388
  13.600   1.5901   0.01565   0.01135  -0.0088  0.0015  0.9269  -12.5118   0.0000   0.2387
  13.700   1.6001   0.01587   0.01157  -0.0090  0.0015  0.9270  -12.7160   0.0000   0.2386
  13.800   1.6100   0.01609   0.01180  -0.0092  0.0015  0.9272  -12.9209   0.0000   0.2385
  13.900   1.6199   0.01631   0.01203  -0.0094  0.0015  0.9274  -13.1262   0.0000   0.2384
  14.000   1.6296   0.01654   0.01226  -0.0096  0.0014  0.9276  -13.3315   0.0000   0.2383
  14.100   1.6391   0.01678   0.01251  -0.0097  0.0014  0.9278  -13.5367   0.0000   0.2381
  14.200   1.6486   0.01702   0.01275  -0.0099  0.0014  0.9279  -13.7417   0.0000   0.2380
  14.300   1.6578   0.01727   0.01301  -0.0100  0.0014  0.9280  -13.9465   0.0000   0.2378
  14.400   1.6670   0.01752   0.01327  -0.0101  0.0014  0.9281  -14.1509   0.0000   0.2377
  14.500   1.6761   0.01778   0.01355  -0.0103  0.0014  0.9282  -14.3563   0.0000   0.2375
  14.600   1.6852   0.01806   0.01383  -0.0105  0.0014  0.9282  -14.5627   0.0000   0.2374
  14.700   1.6940   0.01840   0.01418  -0.0108  0.0014  0.9283  -14.7655   0.0000   0.2374
  14.800   1.7022   0.01875   0.01455  -0.0111  0.0014  0.9282  -14.9639   0.0000   0.2373
  14.900   1.7102   0.01909   0.01490  -0.0112  0.0013  0.9282  -15.1609   0.0000   0.2371
  15.000   1.7182   0.01943   0.01525  -0.0114  0.0013  0.9282  -15.3593   0.0000   0.2370
  15.100   1.7261   0.01977   0.01560  -0.0115  0.0013  0.9281  -15.5573   0.0000   0.2368
  15.200   1.7335   0.02011   0.01595  -0.0116  0.0013  0.9281  -15.7521   0.0000   0.2366
  15.300   1.7404   0.02046   0.01631  -0.0116  0.0013  0.9281  -15.9410   0.0000   0.2364
  15.400   1.7458   0.02081   0.01668  -0.0113  0.0013  0.9280  -16.1149   0.0000   0.2360
  15.500   1.7504   0.02118   0.01706  -0.0109  0.0013  0.9280  -16.2804   0.0000   0.2355
  15.600   1.7527   0.02172   0.01762  -0.0105  0.0013  0.9279  -16.4187   0.0000   0.2351
  15.700   1.7562   0.02223   0.01814  -0.0101  0.0013  0.9278  -16.5707   0.0000   0.2347
  15.800   1.7607   0.02268   0.01861  -0.0099  0.0013  0.9278  -16.7371   0.0000   0.2343
  15.900   1.7656   0.02312   0.01906  -0.0096  0.0012  0.9277  -16.9076   0.0000   0.2339
  16.000   1.7705   0.02356   0.01952  -0.0094  0.0012  0.9277  -17.0793   0.0000   0.2335
  16.100   1.7750   0.02401   0.01998  -0.0091  0.0012  0.9276  -17.2475   0.0000   0.2332
  16.200   1.7793   0.02447   0.02046  -0.0088  0.0012  0.9276  -17.4139   0.0000   0.2328
  16.300   1.7836   0.02494   0.02095  -0.0085  0.0012  0.9275  -17.5800   0.0000   0.2324
  16.400   1.7873   0.02547   0.02149  -0.0082  0.0012  0.9275  -17.7404   0.0000   0.2320
  16.500   1.7874   0.02635   0.02240  -0.0081  0.0012  0.9274  -17.8520   0.0000   0.2317
  16.600   1.7903   0.02698   0.02305  -0.0079  0.0012  0.9274  -18.0024   0.0000   0.2313
  16.700   1.7938   0.02757   0.02365  -0.0077  0.0012  0.9273  -18.1604   0.0000   0.2310
  16.800   1.7973   0.02814   0.02425  -0.0075  0.0012  0.9273  -18.3185   0.0000   0.2306
  16.900   1.8004   0.02872   0.02484  -0.0072  0.0012  0.9273  -18.4726   0.0000   0.2302
  17.000   1.8033   0.02932   0.02546  -0.0069  0.0012  0.9272  -18.6258   0.0000   0.2299
  17.100   1.8062   0.02994   0.02610  -0.0066  0.0011  0.9272  -18.7778   0.0000   0.2295
  17.200   1.8088   0.03060   0.02678  -0.0064  0.0011  0.9272  -18.9272   0.0000   0.2291
  17.300   1.8063   0.03180   0.02801  -0.0064  0.0011  0.9273  -19.0063   0.0000   0.2289
  17.400   1.8069   0.03271   0.02894  -0.0063  0.0011  0.9273  -19.1270   0.0000   0.2286
  17.500   1.8086   0.03350   0.02976  -0.0062  0.0011  0.9274  -19.2640   0.0000   0.2283
  17.600   1.8105   0.03428   0.03056  -0.0060  0.0011  0.9275  -19.4034   0.0000   0.2280
  17.700   1.8122   0.03507   0.03137  -0.0059  0.0011  0.9276  -19.5415   0.0000   0.2277
  17.800   1.8137   0.03589   0.03221  -0.0058  0.0011  0.9277  -19.6757   0.0000   0.2274
  17.900   1.8143   0.03674   0.03309  -0.0056  0.0011  0.9278  -19.7994   0.0000   0.2270
  18.000   1.8080   0.03844   0.03483  -0.0058  0.0011  0.9278  -19.8239   0.0000   0.2269
  18.100   1.8072   0.03955   0.03597  -0.0058  0.0011  0.9279  -19.9257   0.0000   0.2267
  18.200   1.8073   0.04057   0.03701  -0.0058  0.0011  0.9280  -20.0406   0.0000   0.2264
  18.300   1.8076   0.04159   0.03806  -0.0058  0.0011  0.9280  -20.1575   0.0000   0.2262
  18.400   1.8076   0.04265   0.03915  -0.0058  0.0011  0.9281  -20.2706   0.0000   0.2259
  18.500   1.8071   0.04379   0.04032  -0.0059  0.0010  0.9281  -20.3757   0.0000   0.2257
  18.600   1.7985   0.04611   0.04268  -0.0067  0.0010  0.9281  -20.3613   0.0000   0.2259
  18.700   1.7970   0.04746   0.04406  -0.0069  0.0010  0.9281  -20.4496   0.0000   0.2258
  18.800   1.7958   0.04874   0.04538  -0.0071  0.0010  0.9281  -20.5431   0.0000   0.2257
  18.900   1.7943   0.05007   0.04674  -0.0073  0.0010  0.9280  -20.6315   0.0000   0.2255
  19.000   1.7921   0.05149   0.04819  -0.0076  0.0010  0.9280  -20.7093   0.0000   0.2254
  19.100   1.7807   0.05434   0.05109  -0.0087  0.0010  0.9279  -20.6468   0.0000   0.2258
  19.200   1.7768   0.05599   0.05278  -0.0091  0.0010  0.9279  -20.6974   0.0000   0.2257
  19.300   1.7734   0.05757   0.05440  -0.0094  0.0010  0.9278  -20.7561   0.0000   0.2257
  19.400   1.7714   0.05902   0.05587  -0.0097  0.0010  0.9278  -20.8373   0.0000   0.2256
  19.500   1.7701   0.06041   0.05728  -0.0101  0.0010  0.9278  -20.9308   0.0000   0.2256


