xflr5 v6.48

 Calculated polar for: HUGHES HELICOPTERS HH-02 AIRFOIL

 1 1 Reynolds number fixed          Mach number fixed         

 xtrf =   1.000 (top)        1.000 (bottom)
 Mach =   0.000     Re =     1.250 e 6     Ncrit =   9.000

  alpha     CL        CD       CDp       Cm    Top Xtr Bot Xtr   Cpmin    Chinge    XCp    
 ------- -------- --------- --------- -------- ------- ------- -------- --------- ---------
 -20.000  -0.9305   0.28284   0.28140   0.1415  0.8704  0.0035  -2.0076   0.0000   0.3876
 -19.900  -0.9275   0.28123   0.27979   0.1406  0.8695  0.0035  -2.0229   0.0000   0.3873
 -19.800  -0.9246   0.27962   0.27818   0.1398  0.8687  0.0035  -2.0387   0.0000   0.3869
 -19.700  -0.9216   0.27801   0.27656   0.1389  0.8678  0.0035  -2.0550   0.0000   0.3866
 -19.600  -0.9186   0.27641   0.27496   0.1381  0.8670  0.0035  -2.0708   0.0000   0.3863
 -19.500  -0.9157   0.27483   0.27339   0.1372  0.8661  0.0035  -2.0837   0.0000   0.3860
 -19.400  -0.9127   0.27327   0.27182   0.1364  0.8653  0.0035  -2.0957   0.0000   0.3857
 -19.300  -0.9097   0.27170   0.27026   0.1356  0.8645  0.0035  -2.1083   0.0000   0.3854
 -19.200  -0.9071   0.26998   0.26853   0.1348  0.8637  0.0035  -2.1308   0.0000   0.3851
 -19.100  -0.9045   0.26867   0.26723   0.1343  0.8629  0.0035  -2.0967   0.0000   0.3851
 -19.000  -0.9017   0.26740   0.26595   0.1336  0.8621  0.0036  -2.0692   0.0000   0.3850
 -18.900  -0.8988   0.26612   0.26467   0.1329  0.8613  0.0036  -2.0448   0.0000   0.3848
 -18.800  -0.8959   0.26484   0.26339   0.1322  0.8605  0.0036  -2.0223   0.0000   0.3846
 -18.700  -0.8929   0.26356   0.26210   0.1315  0.8596  0.0036  -2.0016   0.0000   0.3844
 -18.600  -0.8898   0.26227   0.26081   0.1307  0.8586  0.0036  -1.9825   0.0000   0.3842
 -18.500  -0.8867   0.26098   0.25952   0.1299  0.8576  0.0037  -1.9647   0.0000   0.3840
 -18.400  -0.8836   0.25968   0.25821   0.1292  0.8565  0.0037  -1.9482   0.0000   0.3838
 -18.300  -0.8805   0.25837   0.25690   0.1284  0.8553  0.0037  -1.9331   0.0000   0.3835
 -18.200  -0.8773   0.25706   0.25558   0.1275  0.8538  0.0037  -1.9192   0.0000   0.3832
 -18.100  -0.8740   0.25573   0.25425   0.1267  0.8522  0.0038  -1.9065   0.0000   0.3830
 -18.000  -0.8706   0.25438   0.25290   0.1258  0.8501  0.0038  -1.8950   0.0000   0.3826
 -17.900  -0.8674   0.25306   0.25158   0.1250  0.8499  0.0038  -1.8851   0.0000   0.3824
 -17.800  -0.8642   0.25174   0.25026   0.1242  0.8497  0.0039  -1.8765   0.0000   0.3821
 -17.700  -0.8610   0.25041   0.24893   0.1235  0.8495  0.0039  -1.8692   0.0000   0.3819
 -17.600  -0.8579   0.24909   0.24761   0.1227  0.8493  0.0040  -1.8634   0.0000   0.3816
 -17.500  -0.8547   0.24776   0.24628   0.1219  0.8490  0.0040  -1.8590   0.0000   0.3813
 -17.400  -0.8515   0.24643   0.24494   0.1211  0.8488  0.0041  -1.8563   0.0000   0.3810
 -17.300  -0.8483   0.24509   0.24360   0.1203  0.8485  0.0042  -1.8555   0.0000   0.3808
 -17.200  -0.8451   0.24374   0.24225   0.1195  0.8482  0.0043  -1.8573   0.0000   0.3805
 -17.100  -0.8419   0.24237   0.24088   0.1187  0.8478  0.0044  -1.8630   0.0000   0.3802
 -17.000  -0.8396   0.23743   0.23596   0.1162  0.8477  0.0050  -2.4303   0.0000   0.3773
 -16.900  -0.8367   0.23642   0.23494   0.1159  0.8473  0.0050  -2.3689   0.0000   0.3775
 -16.800  -0.8336   0.23540   0.23392   0.1153  0.8468  0.0051  -2.3192   0.0000   0.3775
 -16.700  -0.8305   0.23435   0.23286   0.1147  0.8464  0.0051  -2.2751   0.0000   0.3775
 -16.600  -0.8274   0.23325   0.23176   0.1141  0.8459  0.0051  -2.2351   0.0000   0.3774
 -16.500  -0.8243   0.23209   0.23060   0.1134  0.8455  0.0052  -2.1988   0.0000   0.3772
 -16.400  -0.8213   0.23086   0.22938   0.1128  0.8450  0.0052  -2.1661   0.0000   0.3770
 -16.300  -0.8183   0.22960   0.22812   0.1121  0.8445  0.0053  -2.1370   0.0000   0.3768
 -16.200  -0.8154   0.22831   0.22682   0.1114  0.8439  0.0054  -2.1119   0.0000   0.3766
 -16.100  -0.8124   0.22698   0.22549   0.1107  0.8434  0.0055  -2.0912   0.0000   0.3764
 -16.000  -0.8094   0.22560   0.22411   0.1100  0.8428  0.0056  -2.0752   0.0000   0.3761
 -15.900  -0.8066   0.22417   0.22268   0.1093  0.8422  0.0057  -2.0643   0.0000   0.3758
 -15.800  -0.8037   0.22268   0.22118   0.1086  0.8416  0.0059  -2.0589   0.0000   0.3755
 -15.700  -0.8009   0.22109   0.21959   0.1078  0.8410  0.0061  -2.0634   0.0000   0.3751
 -15.600  -0.7983   0.21855   0.21705   0.1067  0.8405  0.0064  -2.1717   0.0000   0.3741
 -15.500  -0.7961   0.21630   0.21480   0.1055  0.8399  0.0065  -2.2464   0.0000   0.3730
 -15.400  -0.7939   0.21426   0.21276   0.1044  0.8393  0.0065  -2.2962   0.0000   0.3721
 -15.300  -0.7918   0.21229   0.21079   0.1034  0.8387  0.0065  -2.3381   0.0000   0.3711
 -15.200  -0.7897   0.21040   0.20890   0.1024  0.8381  0.0065  -2.3697   0.0000   0.3703
 -15.100  -0.7875   0.20860   0.20710   0.1015  0.8374  0.0065  -2.3900   0.0000   0.3696
 -15.000  -0.7852   0.20692   0.20542   0.1008  0.8367  0.0065  -2.3912   0.0000   0.3692
 -14.900  -0.7824   0.20573   0.20423   0.1006  0.8359  0.0065  -2.3361   0.0000   0.3695
 -14.800  -0.7796   0.20453   0.20303   0.1002  0.8351  0.0066  -2.2887   0.0000   0.3695
 -14.700  -0.7769   0.20330   0.20179   0.0997  0.8343  0.0066  -2.2475   0.0000   0.3695
 -14.600  -0.7742   0.20205   0.20054   0.0992  0.8333  0.0066  -2.2096   0.0000   0.3694
 -14.500  -0.7715   0.20079   0.19928   0.0987  0.8324  0.0066  -2.1738   0.0000   0.3693
 -14.400  -0.7689   0.19951   0.19799   0.0981  0.8315  0.0067  -2.1403   0.0000   0.3691
 -14.300  -0.7663   0.19821   0.19669   0.0976  0.8305  0.0067  -2.1090   0.0000   0.3689
 -14.200  -0.7637   0.19689   0.19536   0.0970  0.8295  0.0067  -2.0799   0.0000   0.3687
 -14.100  -0.7611   0.19554   0.19401   0.0964  0.8285  0.0068  -2.0533   0.0000   0.3685
 -14.000  -0.7586   0.19417   0.19263   0.0958  0.8275  0.0068  -2.0291   0.0000   0.3682
 -13.900  -0.7561   0.19277   0.19123   0.0952  0.8265  0.0069  -2.0075   0.0000   0.3679
 -13.800  -0.7536   0.19134   0.18979   0.0945  0.8256  0.0070  -1.9885   0.0000   0.3676
 -13.700  -0.7512   0.18987   0.18832   0.0939  0.8247  0.0070  -1.9723   0.0000   0.3672
 -13.600  -0.7488   0.18838   0.18682   0.0933  0.8237  0.0071  -1.9591   0.0000   0.3668
 -13.500  -0.7466   0.18684   0.18528   0.0926  0.8228  0.0072  -1.9492   0.0000   0.3664
 -13.400  -0.7443   0.18527   0.18370   0.0919  0.8218  0.0073  -1.9460   0.0000   0.3660
 -13.300  -0.7422   0.18365   0.18208   0.0913  0.8208  0.0074  -1.9595   0.0000   0.3655
 -13.200  -0.7402   0.18197   0.18040   0.0906  0.8198  0.0075  -1.9798   0.0000   0.3649
 -13.100  -0.7384   0.18016   0.17858   0.0898  0.8187  0.0077  -2.0174   0.0000   0.3643
 -13.000  -0.7383   0.17696   0.17539   0.0882  0.8179  0.0079  -2.2254   0.0000   0.3620
 -12.900  -0.7381   0.17452   0.17295   0.0869  0.8170  0.0079  -2.3416   0.0000   0.3603
 -12.800  -0.7371   0.17251   0.17093   0.0860  0.8159  0.0080  -2.4072   0.0000   0.3592
 -12.700  -0.7362   0.17053   0.16895   0.0851  0.8148  0.0080  -2.4675   0.0000   0.3582
 -12.600  -0.7349   0.16870   0.16712   0.0843  0.8137  0.0080  -2.5093   0.0000   0.3574
 -12.500  -0.7336   0.16687   0.16528   0.0835  0.8126  0.0080  -2.5493   0.0000   0.3566
 -12.300  -0.7322   0.16314   0.16155   0.0824  0.8102  0.0081  -2.6026   0.0000   0.3554
 -12.200  -0.7300   0.16183   0.16024   0.0819  0.8088  0.0081  -2.5707   0.0000   0.3553
 -12.100  -0.7275   0.16057   0.15897   0.0815  0.8074  0.0081  -2.5363   0.0000   0.3552
 -12.000  -0.7252   0.15928   0.15768   0.0811  0.8059  0.0082  -2.5061   0.0000   0.3550
 -11.900  -0.7229   0.15794   0.15635   0.0806  0.8044  0.0082  -2.4804   0.0000   0.3548
 -11.800  -0.7207   0.15658   0.15498   0.0800  0.8029  0.0082  -2.4585   0.0000   0.3544
 -11.700  -0.7185   0.15518   0.15358   0.0794  0.8015  0.0083  -2.4400   0.0000   0.3540
 -11.600  -0.7165   0.15375   0.15215   0.0788  0.8000  0.0083  -2.4246   0.0000   0.3536
 -11.500  -0.7146   0.15229   0.15070   0.0783  0.7999  0.0084  -2.4126   0.0000   0.3532
 -11.400  -0.7129   0.15081   0.14922   0.0777  0.7997  0.0084  -2.4037   0.0000   0.3527
 -11.300  -0.7112   0.14930   0.14771   0.0771  0.7995  0.0085  -2.3977   0.0000   0.3522
 -11.200  -1.0519   0.05924   0.05771   0.0241  0.8059  0.0066  -11.7111   0.0000   0.2638
 -11.100  -1.0421   0.05924   0.05773   0.0224  0.8041  0.0067  -11.4666   0.0000   0.2626
 -11.000  -1.0340   0.05877   0.05725   0.0209  0.8025  0.0067  -11.2706   0.0000   0.2615
 -10.800  -1.1062   0.03619   0.03356   0.0110  0.7999  0.0065  -12.9937   0.0000   0.2509
 -10.700  -1.1089   0.03349   0.03064   0.0109  0.7998  0.0066  -13.0657   0.0000   0.2509
 -10.600  -1.1051   0.03210   0.02913   0.0110  0.7996  0.0067  -12.9908   0.0000   0.2511
 -10.500  -1.0987   0.03124   0.02820   0.0111  0.7994  0.0067  -12.8562   0.0000   0.2514
 -10.400  -1.0912   0.03061   0.02753   0.0113  0.7992  0.0068  -12.6953   0.0000   0.2517
 -10.300  -1.0830   0.03011   0.02699   0.0114  0.7990  0.0068  -12.5225   0.0000   0.2520
 -10.200  -1.0746   0.02964   0.02649   0.0115  0.7988  0.0069  -12.3456   0.0000   0.2523
 -10.100  -1.0660   0.02920   0.02601   0.0116  0.7985  0.0069  -12.1685   0.0000   0.2526
 -10.000  -1.0574   0.02874   0.02551   0.0118  0.7982  0.0070  -11.9939   0.0000   0.2530
  -9.900  -1.0488   0.02825   0.02498   0.0119  0.7978  0.0070  -11.8245   0.0000   0.2533
  -9.800  -1.0403   0.02772   0.02439   0.0120  0.7974  0.0071  -11.6614   0.0000   0.2536
  -9.700  -1.0319   0.02715   0.02376   0.0122  0.7969  0.0071  -11.5035   0.0000   0.2540
  -9.600  -1.0234   0.02656   0.02309   0.0123  0.7965  0.0072  -11.3505   0.0000   0.2543
  -9.500  -1.0148   0.02599   0.02246   0.0125  0.7959  0.0073  -11.1959   0.0000   0.2547
  -9.400  -1.0061   0.02541   0.02181   0.0126  0.7954  0.0073  -11.0444   0.0000   0.2550
  -9.300  -0.9974   0.02481   0.02113   0.0128  0.7949  0.0074  -10.8970   0.0000   0.2554
  -9.200  -0.9886   0.02419   0.02043   0.0130  0.7944  0.0075  -10.7526   0.0000   0.2558
  -9.100  -0.9798   0.02359   0.01975   0.0131  0.7938  0.0075  -10.6080   0.0000   0.2561
  -9.000  -0.9707   0.02302   0.01911   0.0133  0.7933  0.0076  -10.4607   0.0000   0.2565
  -8.900  -0.9614   0.02250   0.01850   0.0134  0.7926  0.0077  -10.3107   0.0000   0.2569
  -8.800  -0.9519   0.02202   0.01793   0.0136  0.7920  0.0078  -10.1577   0.0000   0.2573
  -8.700  -0.9422   0.02158   0.01743   0.0137  0.7913  0.0078  -10.0014   0.0000   0.2577
  -8.600  -0.9323   0.02120   0.01698   0.0139  0.7905  0.0079  -9.8414   0.0000   0.2581
  -8.500  -0.9222   0.02087   0.01658   0.0140  0.7898  0.0079  -9.6773   0.0000   0.2585
  -8.400  -0.9120   0.02059   0.01625   0.0141  0.7890  0.0080  -9.5093   0.0000   0.2588
  -8.300  -0.9051   0.01913   0.01460   0.0144  0.7882  0.0081  -9.4543   0.0000   0.2594
  -8.200  -0.8958   0.01851   0.01391   0.0146  0.7873  0.0083  -9.3153   0.0000   0.2598
  -8.100  -0.8858   0.01812   0.01348   0.0147  0.7864  0.0083  -9.1537   0.0000   0.2602
  -8.000  -0.8755   0.01782   0.01316   0.0148  0.7855  0.0084  -8.9852   0.0000   0.2606
  -7.900  -0.8651   0.01756   0.01286   0.0149  0.7846  0.0085  -8.8158   0.0000   0.2610
  -7.800  -0.8547   0.01730   0.01257   0.0150  0.7836  0.0086  -8.6480   0.0000   0.2614
  -7.700  -0.8442   0.01704   0.01229   0.0151  0.7826  0.0087  -8.4820   0.0000   0.2618
  -7.600  -0.8337   0.01679   0.01199   0.0152  0.7814  0.0088  -8.3183   0.0000   0.2623
  -7.500  -0.8231   0.01653   0.01169   0.0153  0.7802  0.0089  -8.1570   0.0000   0.2627
  -7.400  -0.8126   0.01626   0.01139   0.0154  0.7790  0.0090  -7.9985   0.0000   0.2632
  -7.300  -0.8021   0.01599   0.01108   0.0155  0.7776  0.0091  -7.8424   0.0000   0.2636
  -7.200  -0.7915   0.01572   0.01076   0.0156  0.7762  0.0092  -7.6887   0.0000   0.2641
  -7.100  -0.7809   0.01545   0.01045   0.0157  0.7747  0.0093  -7.5365   0.0000   0.2646
  -7.000  -0.7703   0.01519   0.01014   0.0158  0.7731  0.0094  -7.3854   0.0000   0.2651
  -6.900  -0.7595   0.01495   0.00985   0.0159  0.7716  0.0096  -7.2351   0.0000   0.2656
  -6.800  -0.7487   0.01474   0.00960   0.0160  0.7700  0.0097  -7.0826   0.0000   0.2661
  -6.700  -0.7377   0.01459   0.00941   0.0161  0.7683  0.0099  -6.9262   0.0000   0.2666
  -6.600  -0.7265   0.01449   0.00927   0.0161  0.7666  0.0100  -6.7669   0.0000   0.2671
  -6.500  -0.7167   0.01381   0.00851   0.0163  0.7647  0.0103  -6.6564   0.0000   0.2677
  -6.400  -0.7060   0.01354   0.00822   0.0164  0.7627  0.0105  -6.5084   0.0000   0.2681
  -6.300  -0.6950   0.01339   0.00805   0.0164  0.7605  0.0107  -6.3529   0.0000   0.2686
  -6.200  -0.6838   0.01325   0.00790   0.0164  0.7582  0.0108  -6.2070   0.0000   0.2691
  -6.100  -0.6726   0.01312   0.00776   0.0164  0.7559  0.0110  -6.0644   0.0000   0.2695
  -6.000  -0.6614   0.01300   0.00762   0.0164  0.7536  0.0112  -5.9242   0.0000   0.2700
  -5.900  -0.6500   0.01287   0.00747   0.0163  0.7512  0.0114  -5.7864   0.0000   0.2705
  -5.800  -0.6388   0.01272   0.00731   0.0164  0.7499  0.0116  -5.6515   0.0000   0.2710
  -5.700  -0.6276   0.01257   0.00713   0.0164  0.7497  0.0119  -5.5188   0.0000   0.2716
  -5.600  -0.6164   0.01242   0.00696   0.0164  0.7495  0.0121  -5.3868   0.0000   0.2722
  -5.500  -0.6052   0.01228   0.00680   0.0165  0.7492  0.0122  -5.2548   0.0000   0.2728
  -5.400  -0.5939   0.01217   0.00667   0.0165  0.7489  0.0124  -5.1224   0.0000   0.2734
  -5.300  -0.5826   0.01205   0.00654   0.0165  0.7486  0.0125  -4.9912   0.0000   0.2741
  -5.200  -0.5722   0.01146   0.00589   0.0167  0.7483  0.0131  -4.8993   0.0000   0.2748
  -5.100  -0.5611   0.01126   0.00568   0.0167  0.7479  0.0134  -4.7733   0.0000   0.2755
  -5.000  -0.5498   0.01113   0.00554   0.0167  0.7474  0.0137  -4.6474   0.0000   0.2762
  -4.900  -0.5385   0.01101   0.00541   0.0167  0.7469  0.0140  -4.5319   0.0000   0.2769
  -4.800  -0.5272   0.01089   0.00529   0.0167  0.7463  0.0143  -4.4181   0.0000   0.2776
  -4.700  -0.5158   0.01077   0.00516   0.0167  0.7456  0.0146  -4.3065   0.0000   0.2784
  -4.600  -0.5045   0.01065   0.00503   0.0168  0.7448  0.0149  -4.1968   0.0000   0.2792
  -4.500  -0.4931   0.01053   0.00489   0.0168  0.7438  0.0152  -4.0883   0.0000   0.2801
  -4.400  -0.4817   0.01042   0.00477   0.0168  0.7428  0.0155  -3.9804   0.0000   0.2809
  -4.300  -0.4703   0.01032   0.00465   0.0168  0.7416  0.0158  -3.8722   0.0000   0.2819
  -4.200  -0.4589   0.01024   0.00456   0.0168  0.7404  0.0160  -3.7637   0.0000   0.2828
  -4.100  -0.4478   0.00992   0.00421   0.0169  0.7391  0.0166  -3.6758   0.0000   0.2838
  -4.000  -0.4364   0.00977   0.00405   0.0169  0.7378  0.0172  -3.5718   0.0000   0.2849
  -3.900  -0.4250   0.00967   0.00396   0.0169  0.7364  0.0177  -3.4636   0.0000   0.2859
  -3.800  -0.4135   0.00959   0.00388   0.0168  0.7350  0.0182  -3.3563   0.0000   0.2870
  -3.700  -0.4021   0.00951   0.00380   0.0168  0.7336  0.0188  -3.2510   0.0000   0.2882
  -3.600  -0.3906   0.00943   0.00372   0.0168  0.7320  0.0193  -3.1475   0.0000   0.2894
  -3.500  -0.3791   0.00937   0.00364   0.0168  0.7303  0.0197  -3.0451   0.0000   0.2908
  -3.400  -0.3676   0.00931   0.00358   0.0168  0.7286  0.0200  -2.9436   0.0000   0.2922
  -3.300  -0.3563   0.00907   0.00331   0.0168  0.7268  0.0212  -2.8564   0.0000   0.2937
  -3.200  -0.3448   0.00898   0.00322   0.0168  0.7248  0.0220  -2.7567   0.0000   0.2952
  -3.100  -0.3334   0.00891   0.00315   0.0168  0.7228  0.0226  -2.6567   0.0000   0.2969
  -3.000  -0.3219   0.00885   0.00308   0.0168  0.7206  0.0233  -2.5591   0.0000   0.2986
  -2.900  -0.3103   0.00878   0.00300   0.0168  0.7181  0.0240  -2.4634   0.0000   0.3005
  -2.800  -0.2988   0.00873   0.00293   0.0168  0.7154  0.0245  -2.3685   0.0000   0.3026
  -2.700  -0.2872   0.00870   0.00288   0.0167  0.7124  0.0249  -2.2741   0.0000   0.3047
  -2.600  -0.2756   0.00854   0.00268   0.0167  0.7090  0.0265  -2.1919   0.0000   0.3071
  -2.500  -0.2640   0.00843   0.00255   0.0167  0.7055  0.0287  -2.1149   0.0000   0.3096
  -2.400  -0.2523   0.00836   0.00249   0.0166  0.7019  0.0304  -2.0363   0.0000   0.3123
  -2.300  -0.2407   0.00830   0.00244   0.0166  0.6998  0.0319  -1.9575   0.0000   0.3152
  -2.200  -0.2290   0.00824   0.00237   0.0165  0.6994  0.0332  -1.8791   0.0000   0.3186
  -2.100  -0.2174   0.00819   0.00232   0.0165  0.6987  0.0343  -1.8006   0.0000   0.3222
  -2.000  -0.2058   0.00815   0.00228   0.0165  0.6976  0.0349  -1.7223   0.0000   0.3263
  -1.900  -0.1941   0.00802   0.00214   0.0165  0.6961  0.0394  -1.6553   0.0000   0.3311
  -1.800  -0.1825   0.00792   0.00206   0.0164  0.6940  0.0441  -1.5905   0.0000   0.3363
  -1.700  -0.1709   0.00784   0.00200   0.0164  0.6914  0.0475  -1.5244   0.0000   0.3422
  -1.600  -0.1593   0.00779   0.00193   0.0164  0.6883  0.0498  -1.4586   0.0000   0.3489
  -1.500  -0.1477   0.00769   0.00186   0.0163  0.6850  0.0592  -1.3950   0.0000   0.3567
  -1.400  -0.1361   0.00756   0.00179   0.0163  0.6819  0.0739  -1.3313   0.0000   0.3655
  -1.300  -0.1246   0.00740   0.00172   0.0162  0.6788  0.1016  -1.2686   0.0000   0.3757
  -1.200  -0.1131   0.00717   0.00163   0.0161  0.6755  0.1363  -1.2069   0.0000   0.3877
  -1.100  -0.1015   0.00702   0.00158   0.0160  0.6720  0.1698  -1.1452   0.0000   0.4026
  -1.000  -0.0899   0.00688   0.00152   0.0158  0.6685  0.1970  -1.0840   0.0000   0.4213
  -0.900  -0.0783   0.00673   0.00147   0.0157  0.6645  0.2351  -1.0237   0.0000   0.4454
  -0.800  -0.0668   0.00654   0.00142   0.0156  0.6601  0.2823  -0.9644   0.0000   0.4774
  -0.700  -0.0554   0.00631   0.00137   0.0154  0.6556  0.3437  -0.9072   0.0000   0.5221
  -0.600  -0.0439   0.00612   0.00135   0.0153  0.6514  0.3980  -0.8581   0.0000   0.5908
  -0.500  -0.0325   0.00597   0.00134   0.0152  0.6496  0.4405  -0.8093   0.0000   0.7093
  -0.400  -0.0209   0.00589   0.00133   0.0151  0.6488  0.4660  -0.7607   0.0000   0.9631
  -0.300  -0.0093   0.00579   0.00132   0.0151  0.6476  0.4924  -0.7127   0.0000   1.8426
  -0.200   0.0023   0.00574   0.00132   0.0150  0.6460  0.5096  -0.6651   0.0000  -6.0613
  -0.100   0.0139   0.00566   0.00132   0.0150  0.6437  0.5327  -0.6184   0.0000  -0.8157
   0.000   0.0256   0.00563   0.00131   0.0149  0.6410  0.5446  -0.5722   0.0000  -0.3279
   0.100   0.0373   0.00561   0.00130   0.0148  0.6379  0.5527  -0.5301   0.0000  -0.1453
   0.200   0.0489   0.00556   0.00130   0.0148  0.6349  0.5720  -0.4889   0.0000  -0.0509
   0.300   0.0605   0.00552   0.00130   0.0147  0.6318  0.5874  -0.4523   0.0000   0.0072
   0.400   0.0723   0.00551   0.00129   0.0147  0.6283  0.5961  -0.4637   0.0000   0.0471
   0.500   0.0841   0.00552   0.00128   0.0146  0.6246  0.6000  -0.4752   0.0000   0.0763
   0.600   0.0959   0.00550   0.00127   0.0145  0.6206  0.6115  -0.4867   0.0000   0.0983
   0.700   0.1077   0.00548   0.00127   0.0144  0.6159  0.6222  -0.4982   0.0000   0.1155
   0.800   0.1195   0.00548   0.00127   0.0143  0.6106  0.6307  -0.5098   0.0000   0.1294
   0.900   0.1314   0.00548   0.00127   0.0142  0.6052  0.6377  -0.5214   0.0000   0.1408
   1.000   0.1432   0.00549   0.00127   0.0141  0.6000  0.6442  -0.5343   0.0000   0.1502
   1.100   0.1549   0.00549   0.00128   0.0140  0.5990  0.6486  -0.5473   0.0000   0.1580
   1.200   0.1667   0.00548   0.00128   0.0139  0.5975  0.6549  -0.5606   0.0000   0.1647
   1.300   0.1784   0.00545   0.00128   0.0139  0.5951  0.6645  -0.5754   0.0000   0.1705
   1.400   0.1901   0.00542   0.00128   0.0138  0.5917  0.6728  -0.5904   0.0000   0.1755
   1.500   0.2018   0.00540   0.00128   0.0137  0.5873  0.6805  -0.6054   0.0000   0.1800
   1.600   0.2136   0.00540   0.00128   0.0136  0.5822  0.6874  -0.6205   0.0000   0.1841
   1.700   0.2255   0.00541   0.00128   0.0135  0.5764  0.6928  -0.6358   0.0000   0.1879
   1.800   0.2374   0.00544   0.00127   0.0134  0.5701  0.6971  -0.6511   0.0000   0.1915
   2.000   0.2613   0.00546   0.00128   0.0130  0.5564  0.7133  -0.6820   0.0000   0.1977
   2.100   0.2731   0.00543   0.00128   0.0129  0.5500  0.7251  -0.6974   0.0000   0.2002
   2.200   0.2847   0.00539   0.00129   0.0129  0.5486  0.7341  -0.7127   0.0000   0.2023
   2.300   0.2964   0.00537   0.00129   0.0128  0.5467  0.7414  -0.7299   0.0000   0.2042
   2.400   0.3082   0.00536   0.00130   0.0127  0.5439  0.7478  -0.7475   0.0000   0.2061
   2.600   0.3312   0.00526   0.00129   0.0125  0.5331  0.7839  -0.7826   0.0000   0.2093
   2.700   0.3410   0.00506   0.00131   0.0129  0.5245  0.8501  -0.7988   0.0000   0.2093
   2.800   0.3511   0.00507   0.00136   0.0132  0.5136  0.9221  -0.8154   0.0000   0.2094
   2.900   0.3632   0.00514   0.00140   0.0130  0.5010  0.9258  -0.8348   0.0000   0.2112
   3.000   0.3741   0.00514   0.00142   0.0131  0.4976  0.9326  -0.8541   0.0000   0.2118
   3.100   0.3850   0.00514   0.00144   0.0132  0.4936  0.9381  -0.8735   0.0000   0.2124
   3.200   0.3962   0.00517   0.00146   0.0133  0.4867  0.9427  -0.8933   0.0000   0.2131
   3.300   0.4078   0.00524   0.00148   0.0132  0.4744  0.9466  -0.9135   0.0000   0.2142
   3.400   0.4198   0.00535   0.00152   0.0130  0.4554  0.9497  -0.9347   0.0000   0.2157
   3.600   0.4424   0.00546   0.00158   0.0130  0.4329  0.9586  -0.9806   0.0000   0.2171
   3.700   0.4543   0.00561   0.00163   0.0127  0.4118  0.9627  -1.0042   0.0000   0.2184
   3.800   0.4660   0.00570   0.00168   0.0126  0.3954  0.9665  -1.0278   0.0000   0.2193
   3.900   0.4776   0.00579   0.00172   0.0124  0.3816  0.9698  -1.0515   0.0000   0.2202
   4.000   0.4897   0.00596   0.00179   0.0121  0.3610  0.9725  -1.0757   0.0000   0.2214
   4.100   0.5014   0.00605   0.00184   0.0120  0.3469  0.9748  -1.0995   0.0000   0.2221
   4.200   0.5135   0.00612   0.00189   0.0117  0.3392  0.9769  -1.1260   0.0000   0.2231
   4.300   0.5258   0.00621   0.00194   0.0114  0.3297  0.9787  -1.1565   0.0000   0.2241
   4.400   0.5383   0.00633   0.00200   0.0111  0.3185  0.9803  -1.1907   0.0000   0.2252
   4.500   0.5506   0.00643   0.00206   0.0108  0.3050  0.9817  -1.2250   0.0000   0.2262
   4.600   0.5628   0.00649   0.00210   0.0105  0.2984  0.9831  -1.2593   0.0000   0.2269
   4.700   0.5749   0.00655   0.00215   0.0103  0.2935  0.9844  -1.2939   0.0000   0.2277
   4.800   0.5872   0.00665   0.00222   0.0100  0.2844  0.9855  -1.3289   0.0000   0.2285
   4.900   0.5997   0.00680   0.00229   0.0095  0.2715  0.9866  -1.3643   0.0000   0.2295
   5.000   0.6120   0.00693   0.00237   0.0092  0.2560  0.9875  -1.3997   0.0000   0.2303
   5.100   0.6241   0.00700   0.00242   0.0090  0.2492  0.9885  -1.4351   0.0000   0.2309
   5.200   0.6361   0.00704   0.00247   0.0088  0.2470  0.9894  -1.4707   0.0000   0.2313
   5.400   0.6607   0.00719   0.00259   0.0082  0.2377  0.9907  -1.5447   0.0000   0.2326
   5.500   0.6733   0.00730   0.00267   0.0078  0.2297  0.9912  -1.5887   0.0000   0.2333
   5.600   0.6859   0.00744   0.00275   0.0073  0.2203  0.9917  -1.6330   0.0000   0.2341
   5.700   0.6985   0.00756   0.00283   0.0069  0.2090  0.9922  -1.6777   0.0000   0.2348
   5.800   0.7111   0.00765   0.00291   0.0065  0.1999  0.9928  -1.7237   0.0000   0.2354
   5.900   0.7236   0.00771   0.00297   0.0062  0.1980  0.9935  -1.7732   0.0000   0.2359
   6.000   0.7362   0.00778   0.00304   0.0058  0.1946  0.9941  -1.8232   0.0000   0.2365
   6.100   0.7489   0.00789   0.00312   0.0054  0.1887  0.9947  -1.8737   0.0000   0.2371
   6.200   0.7615   0.00803   0.00322   0.0049  0.1807  0.9952  -1.9246   0.0000   0.2377
   6.300   0.7741   0.00819   0.00332   0.0045  0.1718  0.9957  -1.9757   0.0000   0.2383
   6.400   0.7866   0.00833   0.00341   0.0041  0.1610  0.9961  -2.0320   0.0000   0.2388
   6.500   0.7990   0.00843   0.00350   0.0037  0.1511  0.9964  -2.0908   0.0000   0.2392
   6.600   0.8112   0.00851   0.00358   0.0034  0.1483  0.9968  -2.1749   0.0000   0.2395
   6.700   0.8234   0.00861   0.00367   0.0031  0.1446  0.9971  -2.2739   0.0000   0.2399
   6.800   0.8356   0.00877   0.00378   0.0027  0.1391  0.9973  -2.3742   0.0000   0.2403
   6.900   0.8479   0.00897   0.00392   0.0022  0.1321  0.9975  -2.4756   0.0000   0.2408
   7.000   0.8601   0.00914   0.00405   0.0018  0.1250  0.9978  -2.5779   0.0000   0.2412
   7.100   0.8722   0.00922   0.00413   0.0015  0.1231  0.9980  -2.6818   0.0000   0.2414
   7.200   0.8845   0.00934   0.00424   0.0012  0.1194  0.9983  -2.7876   0.0000   0.2417
   7.300   0.8969   0.00951   0.00436   0.0007  0.1133  0.9986  -2.8958   0.0000   0.2422
   7.400   0.9095   0.00972   0.00452   0.0002  0.1048  0.9989  -3.0050   0.0000   0.2427
   7.500   0.9221   0.00985   0.00464  -0.0003  0.0991  0.9992  -3.1163   0.0000   0.2430
   7.600   0.9345   0.00998   0.00475  -0.0007  0.0955  0.9995  -3.2290   0.0000   0.2433
   7.700   0.9469   0.01015   0.00489  -0.0011  0.0898  0.9997  -3.3425   0.0000   0.2437
   7.800   0.9591   0.01037   0.00506  -0.0016  0.0817  0.9999  -3.4560   0.0000   0.2440
   7.900   0.9707   0.01051   0.00518  -0.0019  0.0778  1.0000  -3.5681   0.0000   0.2441
   8.000   0.9815   0.01068   0.00532  -0.0020  0.0730  1.0000  -3.6781   0.0000   0.2442
   8.100   0.9924   0.01092   0.00550  -0.0023  0.0662  1.0000  -3.7889   0.0000   0.2442
   8.200   1.0030   0.01105   0.00563  -0.0023  0.0631  1.0000  -3.9002   0.0000   0.2442
   8.300   1.0138   0.01122   0.00577  -0.0024  0.0594  1.0000  -4.0132   0.0000   0.2441
   8.400   1.0246   0.01142   0.00594  -0.0026  0.0550  1.0000  -4.1273   0.0000   0.2442
   8.500   1.0354   0.01160   0.00610  -0.0028  0.0503  1.0000  -4.2423   0.0000   0.2441
   8.600   1.0463   0.01172   0.00623  -0.0029  0.0490  1.0000  -4.3595   0.0000   0.2441
   8.700   1.0572   0.01186   0.00637  -0.0030  0.0473  1.0000  -4.4782   0.0000   0.2440
   8.800   1.0681   0.01202   0.00652  -0.0032  0.0451  1.0000  -4.5980   0.0000   0.2440
   8.900   1.0790   0.01221   0.00669  -0.0034  0.0425  1.0000  -4.7185   0.0000   0.2440
   9.000   1.0900   0.01240   0.00686  -0.0036  0.0394  1.0000  -4.8397   0.0000   0.2441
   9.100   1.1009   0.01259   0.00705  -0.0037  0.0361  1.0000  -4.9614   0.0000   0.2441
   9.200   1.1119   0.01273   0.00721  -0.0039  0.0348  1.0000  -5.0855   0.0000   0.2440
   9.300   1.1228   0.01286   0.00735  -0.0040  0.0340  1.0000  -5.2117   0.0000   0.2440
   9.400   1.1337   0.01302   0.00751  -0.0042  0.0328  1.0000  -5.3384   0.0000   0.2440
   9.500   1.1445   0.01321   0.00769  -0.0044  0.0310  1.0000  -5.4652   0.0000   0.2440
   9.600   1.1553   0.01344   0.00790  -0.0046  0.0288  1.0000  -5.5920   0.0000   0.2440
   9.700   1.1659   0.01369   0.00812  -0.0049  0.0260  1.0000  -5.7182   0.0000   0.2440
   9.800   1.1767   0.01388   0.00832  -0.0050  0.0245  1.0000  -5.8465   0.0000   0.2439
   9.900   1.1874   0.01408   0.00852  -0.0052  0.0233  1.0000  -5.9762   0.0000   0.2439
  10.000   1.1978   0.01433   0.00876  -0.0055  0.0218  1.0000  -6.1049   0.0000   0.2439
  10.100   1.2082   0.01464   0.00904  -0.0057  0.0200  1.0000  -6.2315   0.0000   0.2439
  10.200   1.2188   0.01482   0.00923  -0.0059  0.0190  1.0000  -6.3626   0.0000   0.2439
  10.300   1.2292   0.01507   0.00948  -0.0061  0.0176  1.0000  -6.4922   0.0000   0.2439
  10.400   1.2393   0.01539   0.00978  -0.0063  0.0159  1.0000  -6.6186   0.0000   0.2439
  10.500   1.2497   0.01561   0.01002  -0.0065  0.0147  1.0000  -6.7474   0.0000   0.2438
  10.600   1.2597   0.01594   0.01032  -0.0068  0.0130  1.0000  -6.8722   0.0000   0.2438
  10.700   1.2697   0.01622   0.01061  -0.0070  0.0117  1.0000  -6.9951   0.0000   0.2438
  10.800   1.2794   0.01656   0.01095  -0.0072  0.0105  1.0000  -7.1160   0.0000   0.2437
  10.900   1.2892   0.01688   0.01129  -0.0074  0.0095  1.0000  -7.2326   0.0000   0.2437
  11.000   1.2988   0.01721   0.01162  -0.0075  0.0087  1.0000  -7.3515   0.0000   0.2436
  11.100   1.3080   0.01763   0.01205  -0.0078  0.0080  1.0000  -7.4612   0.0000   0.2436
  11.200   1.3178   0.01791   0.01235  -0.0079  0.0075  1.0000  -7.5904   0.0000   0.2435
  11.300   1.3272   0.01823   0.01269  -0.0081  0.0072  1.0000  -7.7417   0.0000   0.2434
  11.400   1.3363   0.01859   0.01307  -0.0083  0.0068  1.0000  -7.8909   0.0000   0.2434
  11.500   1.3447   0.01908   0.01357  -0.0085  0.0065  1.0000  -8.0295   0.0000   0.2433
  11.600   1.3539   0.01937   0.01389  -0.0086  0.0063  1.0000  -8.1827   0.0000   0.2432
  11.700   1.3629   0.01969   0.01423  -0.0087  0.0061  1.0000  -8.3355   0.0000   0.2430
  11.800   1.3717   0.02003   0.01460  -0.0089  0.0059  1.0000  -8.4888   0.0000   0.2429
  11.900   1.3803   0.02039   0.01499  -0.0091  0.0057  1.0000  -8.6425   0.0000   0.2429
  12.000   1.3886   0.02080   0.01541  -0.0093  0.0056  1.0000  -8.7938   0.0000   0.2428
  12.100   1.3963   0.02124   0.01587  -0.0094  0.0054  1.0000  -8.9407   0.0000   0.2427
  12.200   1.4034   0.02174   0.01640  -0.0095  0.0052  1.0000  -9.0796   0.0000   0.2426
  12.300   1.4095   0.02233   0.01703  -0.0096  0.0051  1.0000  -9.2067   0.0000   0.2425
  12.400   1.4154   0.02292   0.01765  -0.0097  0.0050  1.0000  -9.3322   0.0000   0.2423
  12.500   1.4223   0.02333   0.01809  -0.0097  0.0049  1.0000  -9.4747   0.0000   0.2421
  12.600   1.4281   0.02379   0.01858  -0.0096  0.0049  1.0000  -9.6083   0.0000   0.2418
  12.700   1.4324   0.02428   0.01911  -0.0094  0.0049  1.0000  -9.7289   0.0000   0.2414
  12.800   1.4365   0.02479   0.01965  -0.0091  0.0048  1.0000  -9.8485   0.0000   0.2410
  12.900   1.4407   0.02530   0.02019  -0.0088  0.0048  1.0000  -9.9699   0.0000   0.2406
  13.000   1.4451   0.02582   0.02076  -0.0085  0.0047  1.0000  -10.0927   0.0000   0.2403
  13.100   1.4494   0.02636   0.02132  -0.0083  0.0047  1.0000  -10.2160   0.0000   0.2399
  13.200   1.4536   0.02691   0.02191  -0.0080  0.0046  1.0000  -10.3386   0.0000   0.2395
  13.300   1.4575   0.02748   0.02252  -0.0078  0.0046  1.0000  -10.4588   0.0000   0.2392
  13.400   1.4604   0.02815   0.02322  -0.0076  0.0045  1.0000  -10.5688   0.0000   0.2388
  13.500   1.4630   0.02886   0.02396  -0.0074  0.0045  1.0000  -10.6767   0.0000   0.2385
  13.600   1.4660   0.02954   0.02468  -0.0072  0.0044  1.0000  -10.7890   0.0000   0.2382
  13.700   1.4691   0.03023   0.02540  -0.0071  0.0044  1.0000  -10.9031   0.0000   0.2379
  13.800   1.4722   0.03092   0.02613  -0.0069  0.0044  1.0000  -11.0174   0.0000   0.2376
  13.900   1.4751   0.03163   0.02687  -0.0067  0.0043  1.0000  -11.1299   0.0000   0.2372
  14.000   1.4776   0.03236   0.02764  -0.0065  0.0043  1.0000  -11.2394   0.0000   0.2369
  14.100   1.4792   0.03319   0.02850  -0.0064  0.0042  1.0000  -11.3398   0.0000   0.2366
  14.200   1.4798   0.03416   0.02951  -0.0064  0.0042  1.0000  -11.4286   0.0000   0.2364
  14.300   1.4810   0.03507   0.03046  -0.0064  0.0042  1.0000  -11.5249   0.0000   0.2362
  14.400   1.4826   0.03596   0.03139  -0.0063  0.0042  1.0000  -11.6246   0.0000   0.2359
  14.500   1.4841   0.03687   0.03233  -0.0063  0.0041  1.0000  -11.7242   0.0000   0.2357
  14.600   1.4854   0.03780   0.03330  -0.0062  0.0041  1.0000  -11.8217   0.0000   0.2355
  14.700   1.4858   0.03885   0.03440  -0.0063  0.0041  1.0000  -11.9089   0.0000   0.2353
  14.800   1.4844   0.04013   0.03572  -0.0065  0.0040  1.0000  -11.9756   0.0000   0.2352
  14.900   1.4837   0.04129   0.03692  -0.0066  0.0040  1.0000  -12.0513   0.0000   0.2351
  15.000   1.4834   0.04243   0.03810  -0.0067  0.0040  1.0000  -12.1303   0.0000   0.2350
  15.100   1.4830   0.04361   0.03931  -0.0068  0.0040  1.0000  -12.2078   0.0000   0.2348
  15.200   1.4818   0.04491   0.04066  -0.0070  0.0039  1.0000  -12.2756   0.0000   0.2348
  15.300   1.4784   0.04657   0.04237  -0.0075  0.0039  1.0000  -12.3161   0.0000   0.2349
  15.400   1.4764   0.04805   0.04390  -0.0078  0.0039  1.0000  -12.3730   0.0000   0.2349
  15.500   1.4747   0.04950   0.04539  -0.0082  0.0039  1.0000  -12.4325   0.0000   0.2349
  15.600   1.4728   0.05101   0.04694  -0.0085  0.0039  1.0000  -12.4891   0.0000   0.2350
  15.700   1.4683   0.05297   0.04896  -0.0093  0.0039  1.0000  -12.5121   0.0000   0.2353
  15.800   1.4643   0.05487   0.05091  -0.0100  0.0038  1.0000  -12.5407   0.0000   0.2355
  15.900   1.4611   0.05663   0.05271  -0.0105  0.0038  1.0000  -12.5789   0.0000   0.2357
  16.000   1.4575   0.05841   0.05454  -0.0111  0.0038  1.0000  -12.6122   0.0000   0.2359
  16.100   1.4512   0.06076   0.05694  -0.0121  0.0038  1.0000  -12.6075   0.0000   0.2364
  16.200   1.4457   0.06301   0.05924  -0.0130  0.0038  1.0000  -12.6133   0.0000   0.2368
  16.300   1.4413   0.06508   0.06137  -0.0138  0.0038  1.0000  -12.6308   0.0000   0.2372
  16.400   1.4365   0.06723   0.06356  -0.0146  0.0038  1.0000  -12.6433   0.0000   0.2376
  16.500   1.4282   0.07018   0.06658  -0.0161  0.0038  1.0000  -12.6048   0.0000   0.2385
  16.600   1.4224   0.07263   0.06908  -0.0172  0.0038  1.0000  -12.5987   0.0000   0.2391
  16.700   1.4168   0.07503   0.07152  -0.0182  0.0038  1.0000  -12.5953   0.0000   0.2396
  16.800   1.4082   0.07812   0.07469  -0.0198  0.0038  1.0000  -12.5469   0.0000   0.2406
  16.900   1.4006   0.08103   0.07764  -0.0212  0.0038  1.0000  -12.5109   0.0000   0.2415
  17.000   1.3940   0.08369   0.08035  -0.0224  0.0038  1.0000  -12.4879   0.0000   0.2422
  17.100   1.3843   0.08708   0.08381  -0.0241  0.0038  1.0000  -12.4171   0.0000   0.2433
  17.200   1.3753   0.09025   0.08704  -0.0256  0.0038  1.0000  -12.3547   0.0000   0.2443
  17.300   1.3675   0.09310   0.08993  -0.0269  0.0038  1.0000  -12.3105   0.0000   0.2452
  17.400   1.3564   0.09675   0.09365  -0.0286  0.0038  1.0000  -12.2130   0.0000   0.2465
  17.500   1.3458   0.10037   0.09732  -0.0304  0.0038  1.0000  -12.1181   0.0000   0.2478
  17.600   1.3376   0.10341   0.10041  -0.0318  0.0038  1.0000  -12.0605   0.0000   0.2488
  17.700   1.3292   0.10656   0.10361  -0.0333  0.0038  1.0000  -11.9956   0.0000   0.2499
  17.800   1.3125   0.11160   0.10872  -0.0359  0.0038  1.0000  -11.7940   0.0000   0.2520
  17.900   1.3039   0.11483   0.11200  -0.0374  0.0038  1.0000  -11.7207   0.0000   0.2533
  18.000   1.2965   0.11783   0.11504  -0.0389  0.0038  1.0000  -11.6635   0.0000   0.2544
  18.100   1.2887   0.12091   0.11816  -0.0404  0.0039  1.0000  -11.5983   0.0000   0.2555
  18.200   1.2709   0.12629   0.12363  -0.0432  0.0039  1.0000  -11.3589   0.0000   0.2580
  18.300   1.2596   0.13025   0.12764  -0.0452  0.0039  1.0000  -11.2245   0.0000   0.2598
  18.400   1.2533   0.13316   0.13058  -0.0466  0.0039  1.0000  -11.1715   0.0000   0.2610
  18.500   1.2478   0.13583   0.13328  -0.0479  0.0039  1.0000  -11.1323   0.0000   0.2620
  18.600   1.2425   0.13839   0.13587  -0.0492  0.0039  1.0000  -11.0969   0.0000   0.2630
  18.700   1.2377   0.14092   0.13842  -0.0505  0.0039  1.0000  -11.0665   0.0000   0.2640
  18.800   1.2328   0.14352   0.14106  -0.0517  0.0039  1.0000  -11.0308   0.0000   0.2651
  18.900   1.2272   0.14631   0.14388  -0.0532  0.0039  1.0000  -10.9803   0.0000   0.2662
  19.000   1.2158   0.15058   0.14821  -0.0554  0.0039  1.0000  -10.8133   0.0000   0.2684
  19.100   1.2102   0.15354   0.15120  -0.0569  0.0039  1.0000  -10.7513   0.0000   0.2697
  19.200   1.2054   0.15632   0.15401  -0.0583  0.0039  1.0000  -10.7026   0.0000   0.2709
  19.300   1.2005   0.15916   0.15688  -0.0598  0.0039  1.0000  -10.6491   0.0000   0.2722
  19.400   1.1914   0.16308   0.16085  -0.0619  0.0039  1.0000  -10.5060   0.0000   0.2742
  19.500   1.1855   0.16624   0.16403  -0.0636  0.0039  1.0000  -10.4245   0.0000   0.2758
  19.600   1.1822   0.16878   0.16660  -0.0649  0.0039  1.0000  -10.3926   0.0000   0.2769
  19.700   1.1795   0.17118   0.16902  -0.0662  0.0039  1.0000  -10.3717   0.0000   0.2780
  19.800   1.1770   0.17356   0.17142  -0.0675  0.0039  1.0000  -10.3517   0.0000   0.2790
  19.900   1.1745   0.17596   0.17385  -0.0688  0.0039  1.0000  -10.3286   0.0000   0.2801
  20.000   1.1717   0.17845   0.17636  -0.0702  0.0039  1.0000  -10.2982   0.0000   0.2813


