xflr5 v6.48

 Calculated polar for: HUGHES HELICOPTERS HH-02 AIRFOIL

 1 1 Reynolds number fixed          Mach number fixed         

 xtrf =   1.000 (top)        1.000 (bottom)
 Mach =   0.000     Re =     0.500 e 6     Ncrit =   9.000

  alpha     CL        CD       CDp       Cm    Top Xtr Bot Xtr   Cpmin    Chinge    XCp    
 ------- -------- --------- --------- -------- ------- ------- -------- --------- ---------
 -20.000  -0.9140   0.28240   0.28044   0.1357  0.9168  0.0067  -1.6960   0.0000   0.3843
 -19.900  -0.9109   0.28097   0.27900   0.1349  0.9158  0.0068  -1.6874   0.0000   0.3841
 -19.800  -0.9078   0.27954   0.27756   0.1340  0.9149  0.0068  -1.6807   0.0000   0.3838
 -19.700  -0.9046   0.27809   0.27612   0.1332  0.9140  0.0069  -1.6755   0.0000   0.3835
 -19.600  -0.9015   0.27664   0.27467   0.1324  0.9130  0.0069  -1.6718   0.0000   0.3832
 -19.500  -0.8983   0.27519   0.27321   0.1316  0.9121  0.0070  -1.6695   0.0000   0.3829
 -19.400  -0.8952   0.27373   0.27174   0.1307  0.9111  0.0071  -1.6686   0.0000   0.3826
 -19.300  -0.8920   0.27226   0.27027   0.1299  0.9102  0.0072  -1.6690   0.0000   0.3823
 -19.200  -0.8888   0.27079   0.26880   0.1290  0.9092  0.0072  -1.6708   0.0000   0.3820
 -18.300  -0.8584   0.25571   0.25371   0.1195  0.8999  0.0080  -1.9835   0.0000   0.3769
 -18.200  -0.8554   0.25440   0.25240   0.1191  0.8996  0.0081  -1.9401   0.0000   0.3771
 -18.100  -0.8523   0.25314   0.25114   0.1186  0.8993  0.0081  -1.9048   0.0000   0.3771
 -18.000  -0.8492   0.25190   0.24990   0.1180  0.8990  0.0082  -1.8760   0.0000   0.3770
 -17.900  -0.8461   0.25066   0.24866   0.1173  0.8987  0.0082  -1.8526   0.0000   0.3768
 -17.800  -0.8429   0.24941   0.24741   0.1165  0.8983  0.0083  -1.8340   0.0000   0.3766
 -17.700  -0.8396   0.24814   0.24614   0.1158  0.8979  0.0084  -1.8196   0.0000   0.3764
 -17.600  -0.8364   0.24686   0.24485   0.1150  0.8975  0.0085  -1.8092   0.0000   0.3761
 -17.500  -0.8331   0.24555   0.24354   0.1142  0.8971  0.0086  -1.8028   0.0000   0.3758
 -17.400  -0.8298   0.24422   0.24221   0.1134  0.8966  0.0087  -1.8005   0.0000   0.3755
 -17.300  -0.8265   0.24286   0.24085   0.1126  0.8962  0.0089  -1.8028   0.0000   0.3752
 -17.200  -0.8231   0.24146   0.23945   0.1117  0.8956  0.0091  -1.8112   0.0000   0.3748
 -17.100  -0.8198   0.23998   0.23797   0.1109  0.8951  0.0094  -1.8323   0.0000   0.3744
 -17.000  -0.8169   0.23721   0.23521   0.1075  0.8946  0.0100  -2.1633   0.0000   0.3707
 -16.900  -0.8142   0.23553   0.23353   0.1065  0.8939  0.0100  -2.2004   0.0000   0.3699
 -16.800  -0.8107   0.23411   0.23211   0.1066  0.8932  0.0101  -2.1332   0.0000   0.3707
 -16.700  -0.8075   0.23286   0.23086   0.1063  0.8923  0.0101  -2.0816   0.0000   0.3711
 -16.600  -0.8043   0.23165   0.22964   0.1059  0.8914  0.0102  -2.0401   0.0000   0.3712
 -16.500  -0.8013   0.23042   0.22841   0.1054  0.8905  0.0102  -2.0061   0.0000   0.3711
 -16.400  -0.7983   0.22914   0.22714   0.1048  0.8896  0.0103  -1.9780   0.0000   0.3710
 -16.300  -0.7952   0.22783   0.22582   0.1041  0.8886  0.0104  -1.9545   0.0000   0.3708
 -16.200  -0.7922   0.22649   0.22448   0.1034  0.8876  0.0105  -1.9349   0.0000   0.3706
 -16.100  -0.7892   0.22511   0.22310   0.1027  0.8867  0.0106  -1.9185   0.0000   0.3703
 -16.000  -0.7861   0.22371   0.22170   0.1020  0.8858  0.0108  -1.9047   0.0000   0.3700
 -15.900  -0.7831   0.22228   0.22027   0.1012  0.8850  0.0109  -1.8933   0.0000   0.3696
 -15.800  -0.7800   0.22083   0.21881   0.1005  0.8841  0.0110  -1.8838   0.0000   0.3692
 -15.700  -0.7770   0.21936   0.21735   0.0997  0.8832  0.0112  -1.8756   0.0000   0.3688
 -15.600  -0.7740   0.21788   0.21586   0.0989  0.8824  0.0114  -1.8693   0.0000   0.3684
 -15.500  -0.7710   0.21633   0.21431   0.0981  0.8815  0.0117  -1.8691   0.0000   0.3680
 -15.400  -0.7679   0.21461   0.21259   0.0971  0.8807  0.0121  -1.8930   0.0000   0.3672
 -15.300  -0.7654   0.21252   0.21051   0.0950  0.8799  0.0124  -2.0020   0.0000   0.3649
 -15.200  -0.7637   0.21081   0.20879   0.0934  0.8791  0.0124  -2.0629   0.0000   0.3630
 -15.100  -0.7620   0.20916   0.20715   0.0920  0.8783  0.0124  -2.1026   0.0000   0.3615
 -15.000  -0.7603   0.20754   0.20553   0.0907  0.8775  0.0125  -2.1342   0.0000   0.3602
 -14.900  -0.7585   0.20592   0.20391   0.0895  0.8767  0.0125  -2.1583   0.0000   0.3590
 -14.800  -0.7564   0.20429   0.20228   0.0885  0.8758  0.0125  -2.1751   0.0000   0.3581
 -14.700  -0.7543   0.20264   0.20063   0.0875  0.8750  0.0125  -2.1908   0.0000   0.3571
 -14.600  -0.7506   0.20056   0.19855   0.0879  0.8742  0.0126  -2.1347   0.0000   0.3583
 -14.500  -0.7467   0.19907   0.19706   0.0881  0.8734  0.0126  -2.0651   0.0000   0.3594
 -14.400  -0.7433   0.19770   0.19569   0.0880  0.8725  0.0127  -2.0152   0.0000   0.3598
 -14.300  -0.7403   0.19637   0.19435   0.0877  0.8717  0.0128  -1.9745   0.0000   0.3600
 -14.200  -0.7374   0.19503   0.19301   0.0873  0.8709  0.0128  -1.9397   0.0000   0.3600
 -14.100  -0.7346   0.19369   0.19167   0.0868  0.8700  0.0129  -1.9095   0.0000   0.3599
 -14.000  -0.7319   0.19234   0.19032   0.0863  0.8692  0.0130  -1.8829   0.0000   0.3598
 -13.900  -0.7293   0.19097   0.18895   0.0858  0.8683  0.0131  -1.8591   0.0000   0.3595
 -13.800  -0.7268   0.18960   0.18757   0.0852  0.8674  0.0131  -1.8379   0.0000   0.3593
 -13.700  -0.7243   0.18821   0.18618   0.0847  0.8664  0.0132  -1.8288   0.0000   0.3590
 -13.600  -0.7219   0.18681   0.18478   0.0841  0.8655  0.0133  -1.8234   0.0000   0.3587
 -13.500  -0.7196   0.18540   0.18336   0.0835  0.8645  0.0134  -1.8201   0.0000   0.3584
 -13.400  -0.7173   0.18397   0.18193   0.0830  0.8635  0.0135  -1.8188   0.0000   0.3580
 -13.300  -0.7151   0.18253   0.18049   0.0824  0.8626  0.0137  -1.8193   0.0000   0.3577
 -13.200  -0.7130   0.18108   0.17903   0.0818  0.8616  0.0138  -1.8216   0.0000   0.3573
 -13.100  -0.7109   0.17961   0.17756   0.0812  0.8607  0.0139  -1.8256   0.0000   0.3569
 -13.000  -0.7088   0.17812   0.17607   0.0806  0.8598  0.0141  -1.8315   0.0000   0.3564
 -12.900  -0.7068   0.17662   0.17456   0.0800  0.8590  0.0142  -1.8392   0.0000   0.3560
 -12.800  -0.7048   0.17509   0.17304   0.0794  0.8582  0.0144  -1.8489   0.0000   0.3554
 -12.700  -0.7029   0.17354   0.17149   0.0787  0.8575  0.0146  -1.8612   0.0000   0.3549
 -12.600  -0.7010   0.17197   0.16991   0.0780  0.8567  0.0148  -1.8767   0.0000   0.3543
 -12.500  -0.6992   0.17035   0.16829   0.0773  0.8559  0.0150  -1.8973   0.0000   0.3536
 -12.400  -0.6975   0.16865   0.16659   0.0765  0.8551  0.0153  -1.9288   0.0000   0.3527
 -12.300  -0.6962   0.16668   0.16463   0.0753  0.8542  0.0156  -1.9960   0.0000   0.3512
 -12.200  -0.6963   0.16442   0.16236   0.0734  0.8534  0.0158  -2.1108   0.0000   0.3485
 -12.100  -0.6970   0.16228   0.16023   0.0715  0.8524  0.0158  -2.2106   0.0000   0.3457
 -12.000  -0.6965   0.16018   0.15814   0.0699  0.8513  0.0159  -2.2891   0.0000   0.3435
 -11.900  -0.6950   0.15811   0.15607   0.0685  0.8500  0.0159  -2.3521   0.0000   0.3417
 -11.800  -0.6941   0.15608   0.15404   0.0674  0.8498  0.0160  -2.4073   0.0000   0.3403
 -11.700  -0.6932   0.15405   0.15201   0.0663  0.8496  0.0160  -2.4608   0.0000   0.3389
 -11.600  -0.6923   0.15203   0.15000   0.0653  0.8493  0.0160  -2.5100   0.0000   0.3376
 -11.400  -0.6904   0.14839   0.14637   0.0649  0.8488  0.0162  -2.5011   0.0000   0.3375
 -11.300  -0.6879   0.14716   0.14514   0.0650  0.8484  0.0162  -2.4524   0.0000   0.3381
 -11.200  -0.6850   0.14599   0.14396   0.0650  0.8481  0.0163  -2.4036   0.0000   0.3386
 -11.100  -0.6820   0.14478   0.14275   0.0650  0.8477  0.0164  -2.3603   0.0000   0.3391
 -11.000  -0.6794   0.14350   0.14147   0.0647  0.8473  0.0165  -2.3285   0.0000   0.3392
 -10.900  -0.6772   0.14216   0.14013   0.0644  0.8468  0.0166  -2.3052   0.0000   0.3391
 -10.800  -0.6753   0.14077   0.13875   0.0640  0.8463  0.0167  -2.2881   0.0000   0.3389
 -10.700  -0.6735   0.13935   0.13732   0.0636  0.8457  0.0168  -2.2763   0.0000   0.3385
 -10.600  -0.6720   0.13789   0.13586   0.0631  0.8451  0.0170  -2.2689   0.0000   0.3381
 -10.500  -0.6706   0.13639   0.13437   0.0625  0.8444  0.0171  -2.2653   0.0000   0.3376
 -10.400  -0.6693   0.13486   0.13284   0.0620  0.8437  0.0172  -2.2649   0.0000   0.3370
 -10.300  -0.6679   0.13330   0.13128   0.0614  0.8429  0.0174  -2.2660   0.0000   0.3363
 -10.200  -0.6666   0.13170   0.12968   0.0607  0.8421  0.0176  -2.2695   0.0000   0.3356
 -10.100  -0.6655   0.13006   0.12804   0.0600  0.8412  0.0179  -2.2768   0.0000   0.3347
 -10.000  -0.6645   0.12836   0.12634   0.0592  0.8403  0.0181  -2.2892   0.0000   0.3338
  -9.900  -0.6637   0.12659   0.12457   0.0584  0.8395  0.0184  -2.3089   0.0000   0.3327
  -9.800  -0.6633   0.12467   0.12266   0.0574  0.8386  0.0188  -2.3413   0.0000   0.3313
  -9.700  -0.6638   0.12239   0.12038   0.0559  0.8377  0.0192  -2.4106   0.0000   0.3291
  -9.600  -0.6676   0.11865   0.11665   0.0525  0.8370  0.0197  -2.6277   0.0000   0.3233
  -9.500  -0.6694   0.11579   0.11381   0.0502  0.8361  0.0199  -2.7522   0.0000   0.3197
  -9.400  -0.6708   0.11317   0.11119   0.0483  0.8352  0.0199  -2.8453   0.0000   0.3168
  -9.300  -0.6711   0.11089   0.10891   0.0468  0.8343  0.0199  -2.9041   0.0000   0.3146
  -9.200  -0.6714   0.10859   0.10662   0.0454  0.8333  0.0200  -2.9615   0.0000   0.3124
  -8.900  -0.6789   0.10063   0.09869   0.0410  0.8304  0.0201  -3.1772   0.0000   0.3054
  -8.800  -0.6796   0.09921   0.09727   0.0412  0.8294  0.0203  -3.1415   0.0000   0.3056
  -8.700  -0.6789   0.09791   0.09597   0.0409  0.8283  0.0203  -3.1070   0.0000   0.3055
  -8.600  -0.6782   0.09651   0.09458   0.0405  0.8272  0.0204  -3.0817   0.0000   0.3049
  -8.500  -0.6777   0.09505   0.09311   0.0398  0.8261  0.0205  -3.0635   0.0000   0.3041
  -8.400  -0.6774   0.09352   0.09158   0.0391  0.8250  0.0206  -3.0517   0.0000   0.3031
  -8.300  -0.6770   0.09199   0.09005   0.0383  0.8238  0.0207  -3.0398   0.0000   0.3020
  -8.200  -0.6766   0.09041   0.08848   0.0373  0.8226  0.0208  -3.0304   0.0000   0.3008
  -8.100  -0.6766   0.08872   0.08679   0.0362  0.8214  0.0209  -3.0296   0.0000   0.2992
  -8.000  -0.6772   0.08690   0.08497   0.0348  0.8202  0.0209  -3.0380   0.0000   0.2971
  -7.900  -0.6791   0.08499   0.08306   0.0332  0.8189  0.0210  -3.0598   0.0000   0.2947
  -7.800  -0.6790   0.08291   0.08097   0.0312  0.8178  0.0211  -3.0768   0.0000   0.2919
  -7.700  -0.6777   0.08057   0.07863   0.0287  0.8166  0.0212  -3.0969   0.0000   0.2884
  -7.600  -0.6761   0.07790   0.07594   0.0257  0.8155  0.0213  -3.1283   0.0000   0.2841
  -7.500  -0.6742   0.07466   0.07268   0.0219  0.8143  0.0215  -3.1795   0.0000   0.2785
  -7.400  -0.6721   0.07155   0.06952   0.0186  0.8131  0.0216  -3.2276   0.0000   0.2739
  -7.300  -0.6697   0.06882   0.06674   0.0163  0.8118  0.0218  -3.2638   0.0000   0.2705
  -7.200  -0.6669   0.06620   0.06405   0.0142  0.8103  0.0220  -3.2981   0.0000   0.2675
  -7.100  -0.6637   0.06360   0.06139   0.0124  0.8088  0.0223  -3.3344   0.0000   0.2649
  -7.000  -0.6599   0.06094   0.05864   0.0107  0.8070  0.0227  -3.3785   0.0000   0.2625
  -6.900  -0.6552   0.05811   0.05571   0.0091  0.8049  0.0233  -3.4434   0.0000   0.2600
  -6.800  -0.6443   0.05599   0.05341   0.0077  0.8020  0.0245  -3.5251   0.0000   0.2580
  -6.700  -0.6355   0.05473   0.05197   0.0068  0.7998  0.0248  -3.5454   0.0000   0.2567
  -6.600  -0.6303   0.05291   0.05002   0.0063  0.7993  0.0249  -3.5629   0.0000   0.2560
  -6.400  -0.6480   0.03464   0.03062   0.0044  0.7987  0.0205  -4.5122   0.0000   0.2524
  -6.300  -0.6375   0.03427   0.03033   0.0046  0.7981  0.0195  -4.3975   0.0000   0.2529
  -6.200  -0.6304   0.03241   0.02831   0.0048  0.7974  0.0193  -4.3920   0.0000   0.2532
  -6.100  -0.6228   0.03057   0.02628   0.0049  0.7967  0.0191  -4.3897   0.0000   0.2536
  -6.000  -0.6149   0.02871   0.02423   0.0051  0.7960  0.0188  -4.3929   0.0000   0.2540
  -5.900  -0.6067   0.02670   0.02197   0.0054  0.7953  0.0185  -4.4155   0.0000   0.2546
  -5.800  -0.5980   0.02484   0.01987   0.0058  0.7944  0.0183  -4.4324   0.0000   0.2553
  -5.700  -0.5884   0.02343   0.01825   0.0061  0.7936  0.0183  -4.4320   0.0000   0.2559
  -5.600  -0.5784   0.02232   0.01698   0.0063  0.7926  0.0185  -4.4057   0.0000   0.2565
  -5.500  -0.5682   0.02141   0.01592   0.0065  0.7916  0.0187  -4.3629   0.0000   0.2571
  -5.400  -0.5577   0.02062   0.01501   0.0067  0.7905  0.0190  -4.3091   0.0000   0.2577
  -5.300  -0.5470   0.01996   0.01422   0.0069  0.7893  0.0193  -4.2457   0.0000   0.2583
  -5.200  -0.5362   0.01943   0.01358   0.0071  0.7881  0.0196  -4.1724   0.0000   0.2589
  -5.100  -0.5252   0.01907   0.01312   0.0072  0.7868  0.0199  -4.0873   0.0000   0.2596
  -5.000  -0.5149   0.01819   0.01214   0.0074  0.7856  0.0202  -4.0280   0.0000   0.2602
  -4.900  -0.5048   0.01740   0.01131   0.0076  0.7843  0.0206  -3.9494   0.0000   0.2608
  -4.800  -0.4941   0.01707   0.01098   0.0076  0.7829  0.0210  -3.8413   0.0000   0.2613
  -4.700  -0.4832   0.01691   0.01083   0.0077  0.7815  0.0215  -3.7230   0.0000   0.2618
  -4.600  -0.4722   0.01680   0.01072   0.0077  0.7801  0.0220  -3.6073   0.0000   0.2623
  -4.500  -0.4613   0.01668   0.01059   0.0078  0.7787  0.0226  -3.5075   0.0000   0.2629
  -4.400  -0.4503   0.01651   0.01040   0.0079  0.7773  0.0232  -3.4163   0.0000   0.2636
  -4.300  -0.4394   0.01631   0.01016   0.0080  0.7759  0.0238  -3.3316   0.0000   0.2644
  -4.200  -0.4284   0.01610   0.00992   0.0082  0.7745  0.0243  -3.2500   0.0000   0.2652
  -4.100  -0.4174   0.01591   0.00968   0.0084  0.7731  0.0246  -3.1691   0.0000   0.2661
  -4.000  -0.4063   0.01580   0.00953   0.0085  0.7717  0.0249  -3.0833   0.0000   0.2671
  -3.900  -0.3967   0.01464   0.00828   0.0089  0.7704  0.0258  -3.0634   0.0000   0.2685
  -3.800  -0.3865   0.01401   0.00762   0.0091  0.7691  0.0268  -3.0031   0.0000   0.2697
  -3.700  -0.3759   0.01374   0.00734   0.0093  0.7676  0.0278  -2.9168   0.0000   0.2708
  -3.600  -0.3652   0.01356   0.00715   0.0094  0.7660  0.0287  -2.8275   0.0000   0.2720
  -3.500  -0.3544   0.01338   0.00695   0.0096  0.7644  0.0295  -2.7414   0.0000   0.2732
  -3.400  -0.3436   0.01318   0.00673   0.0098  0.7625  0.0304  -2.6595   0.0000   0.2746
  -3.300  -0.3328   0.01299   0.00650   0.0099  0.7605  0.0313  -2.5796   0.0000   0.2761
  -3.200  -0.3218   0.01282   0.00630   0.0101  0.7581  0.0322  -2.4995   0.0000   0.2775
  -3.100  -0.3106   0.01269   0.00614   0.0101  0.7553  0.0331  -2.4181   0.0000   0.2788
  -3.000  -0.2988   0.01263   0.00606   0.0100  0.7517  0.0339  -2.3335   0.0000   0.2797
  -2.900  -0.2870   0.01260   0.00602   0.0099  0.7497  0.0346  -2.2449   0.0000   0.2806
  -2.800  -0.2757   0.01233   0.00572   0.0099  0.7491  0.0357  -2.1693   0.0000   0.2822
  -2.700  -0.2646   0.01184   0.00518   0.0100  0.7485  0.0385  -2.1084   0.0000   0.2839
  -2.600  -0.2532   0.01161   0.00495   0.0100  0.7478  0.0410  -2.0417   0.0000   0.2856
  -2.500  -0.2417   0.01145   0.00479   0.0100  0.7470  0.0432  -1.9711   0.0000   0.2875
  -2.400  -0.2301   0.01131   0.00463   0.0100  0.7460  0.0454  -1.9013   0.0000   0.2895
  -2.300  -0.2185   0.01118   0.00448   0.0100  0.7449  0.0476  -1.8322   0.0000   0.2917
  -2.200  -0.2070   0.01107   0.00435   0.0100  0.7438  0.0494  -1.7619   0.0000   0.2942
  -2.100  -0.1954   0.01087   0.00413   0.0100  0.7425  0.0538  -1.6985   0.0000   0.2969
  -2.000  -0.1839   0.01069   0.00399   0.0099  0.7411  0.0598  -1.6310   0.0000   0.3000
  -1.900  -0.1723   0.01057   0.00386   0.0099  0.7396  0.0649  -1.5656   0.0000   0.3034
  -1.800  -0.1609   0.01033   0.00371   0.0099  0.7380  0.0817  -1.5085   0.0000   0.3072
  -1.700  -0.1499   0.00992   0.00358   0.0098  0.7364  0.1343  -1.4506   0.0000   0.3109
  -1.600  -0.1389   0.00957   0.00346   0.0097  0.7347  0.1981  -1.3910   0.0000   0.3151
  -1.500  -0.1279   0.00921   0.00336   0.0096  0.7330  0.2667  -1.3310   0.0000   0.3202
  -1.400  -0.1172   0.00880   0.00327   0.0095  0.7312  0.3567  -1.2718   0.0000   0.3262
  -1.300  -0.1067   0.00848   0.00323   0.0096  0.7292  0.4338  -1.2127   0.0000   0.3347
  -1.200  -0.0961   0.00828   0.00318   0.0097  0.7269  0.4792  -1.1534   0.0000   0.3461
  -1.100  -0.0854   0.00815   0.00311   0.0099  0.7244  0.5094  -1.0945   0.0000   0.3610
  -1.000  -0.0748   0.00801   0.00305   0.0102  0.7216  0.5375  -1.0365   0.0000   0.3806
  -0.900  -0.0641   0.00792   0.00297   0.0105  0.7185  0.5544  -0.9788   0.0000   0.4070
  -0.800  -0.0537   0.00780   0.00290   0.0108  0.7152  0.5751  -0.9226   0.0000   0.4439
  -0.700  -0.0431   0.00773   0.00284   0.0111  0.7115  0.5902  -0.8744   0.0000   0.4987
  -0.600  -0.0320   0.00772   0.00279   0.0112  0.7072  0.5999  -0.8263   0.0000   0.5903
  -0.500  -0.0210   0.00769   0.00279   0.0113  0.7024  0.6151  -0.7791   0.0000   0.7744
  -0.400  -0.0097   0.00766   0.00279   0.0113  0.6995  0.6277  -0.7315   0.0000   1.3968
  -0.300   0.0019   0.00762   0.00276   0.0114  0.6984  0.6388  -0.6840   0.0000  -5.5764
  -0.200   0.0136   0.00760   0.00274   0.0113  0.6972  0.6471  -0.6367   0.0000  -0.5658
  -0.100   0.0253   0.00756   0.00272   0.0113  0.6959  0.6561  -0.5910   0.0000  -0.1903
   0.000   0.0367   0.00748   0.00269   0.0113  0.6943  0.6681  -0.5496   0.0000  -0.0551
   0.100   0.0481   0.00742   0.00265   0.0113  0.6926  0.6775  -0.5085   0.0000   0.0166
   0.200   0.0596   0.00738   0.00263   0.0113  0.6906  0.6865  -0.4679   0.0000   0.0610
   0.300   0.0712   0.00735   0.00261   0.0113  0.6885  0.6945  -0.4568   0.0000   0.0913
   0.500   0.0941   0.00724   0.00253   0.0114  0.6837  0.7140  -0.4794   0.0000   0.1287
   0.600   0.1052   0.00714   0.00247   0.0115  0.6809  0.7244  -0.4906   0.0000   0.1404
   0.700   0.1163   0.00706   0.00242   0.0116  0.6776  0.7341  -0.5018   0.0000   0.1497
   0.800   0.1275   0.00700   0.00236   0.0117  0.6741  0.7435  -0.5131   0.0000   0.1573
   1.000   0.1491   0.00678   0.00222   0.0120  0.6667  0.7749  -0.5371   0.0000   0.1678
   1.100   0.1591   0.00661   0.00216   0.0124  0.6629  0.7986  -0.5492   0.0000   0.1705
   1.200   0.1656   0.00637   0.00219   0.0139  0.6592  0.9327  -0.5592   0.0000   0.1644
   1.300   0.1838   0.00637   0.00220   0.0126  0.6544  0.9734  -0.5781   0.0000   0.1799
   1.400   0.2029   0.00640   0.00221   0.0109  0.6498  0.9907  -0.5983   0.0000   0.1946
   1.500   0.2218   0.00641   0.00222   0.0092  0.6484  0.9997  -0.6185   0.0000   0.2066
   1.600   0.2337   0.00641   0.00222   0.0091  0.6467  1.0000  -0.6337   0.0000   0.2091
   1.700   0.2453   0.00641   0.00221   0.0090  0.6446  1.0000  -0.6488   0.0000   0.2111
   1.800   0.2568   0.00641   0.00220   0.0090  0.6419  1.0000  -0.6639   0.0000   0.2128
   1.900   0.2683   0.00641   0.00220   0.0090  0.6386  1.0000  -0.6790   0.0000   0.2143
   2.000   0.2798   0.00642   0.00218   0.0089  0.6345  1.0000  -0.6942   0.0000   0.2157
   2.100   0.2911   0.00642   0.00216   0.0090  0.6299  1.0000  -0.7094   0.0000   0.2168
   2.200   0.3024   0.00643   0.00213   0.0090  0.6249  1.0000  -0.7255   0.0000   0.2178
   2.300   0.3137   0.00644   0.00211   0.0090  0.6198  1.0000  -0.7427   0.0000   0.2187
   2.400   0.3251   0.00646   0.00209   0.0090  0.6141  1.0000  -0.7601   0.0000   0.2195
   2.500   0.3365   0.00650   0.00207   0.0090  0.6075  1.0000  -0.7775   0.0000   0.2205
   2.600   0.3478   0.00655   0.00208   0.0090  0.6005  1.0000  -0.7949   0.0000   0.2213
   2.700   0.3595   0.00656   0.00210   0.0089  0.5981  1.0000  -0.8127   0.0000   0.2222
   2.800   0.3711   0.00657   0.00212   0.0089  0.5955  1.0000  -0.8311   0.0000   0.2232
   2.900   0.3828   0.00658   0.00214   0.0088  0.5922  1.0000  -0.8511   0.0000   0.2240
   3.000   0.3944   0.00660   0.00215   0.0087  0.5881  1.0000  -0.8711   0.0000   0.2248
   3.100   0.4060   0.00662   0.00216   0.0087  0.5832  1.0000  -0.8912   0.0000   0.2255
   3.200   0.4175   0.00664   0.00217   0.0086  0.5774  1.0000  -0.9114   0.0000   0.2261
   3.300   0.4291   0.00668   0.00217   0.0086  0.5705  1.0000  -0.9316   0.0000   0.2267
   3.400   0.4407   0.00673   0.00217   0.0085  0.5622  1.0000  -0.9541   0.0000   0.2274
   3.500   0.4524   0.00680   0.00219   0.0084  0.5523  1.0000  -0.9774   0.0000   0.2281
   3.600   0.4641   0.00683   0.00222   0.0083  0.5473  1.0000  -1.0009   0.0000   0.2287
   3.700   0.4758   0.00685   0.00225   0.0082  0.5423  1.0000  -1.0246   0.0000   0.2292
   3.800   0.4875   0.00689   0.00227   0.0081  0.5356  1.0000  -1.0483   0.0000   0.2298
   3.900   0.4992   0.00693   0.00229   0.0080  0.5267  1.0000  -1.0723   0.0000   0.2303
   4.000   0.5111   0.00701   0.00231   0.0078  0.5154  1.0000  -1.0965   0.0000   0.2309
   4.100   0.5233   0.00712   0.00236   0.0075  0.5011  1.0000  -1.1232   0.0000   0.2317
   4.200   0.5351   0.00716   0.00240   0.0074  0.4932  1.0000  -1.1518   0.0000   0.2322
   4.300   0.5469   0.00723   0.00243   0.0072  0.4813  1.0000  -1.1821   0.0000   0.2328
   4.400   0.5591   0.00734   0.00248   0.0069  0.4649  1.0000  -1.2161   0.0000   0.2335
   4.500   0.5715   0.00749   0.00254   0.0065  0.4475  1.0000  -1.2507   0.0000   0.2343
   4.600   0.5835   0.00758   0.00259   0.0063  0.4327  1.0000  -1.2849   0.0000   0.2349
   4.700   0.5961   0.00777   0.00267   0.0058  0.4104  1.0000  -1.3202   0.0000   0.2359
   4.800   0.6085   0.00793   0.00276   0.0054  0.3926  1.0000  -1.3554   0.0000   0.2366
   4.900   0.6207   0.00807   0.00284   0.0050  0.3777  1.0000  -1.3905   0.0000   0.2373
   5.000   0.6332   0.00826   0.00295   0.0046  0.3605  1.0000  -1.4263   0.0000   0.2381
   5.100   0.6454   0.00840   0.00305   0.0042  0.3468  1.0000  -1.4618   0.0000   0.2387
   5.200   0.6574   0.00852   0.00314   0.0039  0.3374  1.0000  -1.4973   0.0000   0.2391
   5.300   0.6695   0.00867   0.00324   0.0036  0.3252  1.0000  -1.5336   0.0000   0.2397
   5.400   0.6820   0.00889   0.00337   0.0031  0.3089  1.0000  -1.5769   0.0000   0.2404
   5.500   0.6939   0.00902   0.00347   0.0028  0.2976  1.0000  -1.6199   0.0000   0.2408
   5.600   0.7057   0.00912   0.00357   0.0026  0.2904  1.0000  -1.6629   0.0000   0.2411
   5.700   0.7176   0.00926   0.00367   0.0023  0.2810  1.0000  -1.7065   0.0000   0.2415
   5.800   0.7297   0.00944   0.00378   0.0019  0.2699  1.0000  -1.7530   0.0000   0.2420
   5.900   0.7419   0.00963   0.00393   0.0015  0.2570  1.0000  -1.8012   0.0000   0.2425
   6.000   0.7537   0.00975   0.00404   0.0012  0.2490  1.0000  -1.8493   0.0000   0.2427
   6.100   0.7653   0.00983   0.00414   0.0011  0.2453  1.0000  -1.8977   0.0000   0.2429
   6.200   0.7770   0.00993   0.00424   0.0009  0.2396  1.0000  -1.9465   0.0000   0.2430
   6.300   0.7887   0.01007   0.00436   0.0006  0.2319  1.0000  -1.9976   0.0000   0.2433
   6.400   0.8006   0.01026   0.00448   0.0002  0.2227  1.0000  -2.0546   0.0000   0.2436
   6.500   0.8125   0.01046   0.00463  -0.0001  0.2109  1.0000  -2.1121   0.0000   0.2440
   6.600   0.8244   0.01064   0.00480  -0.0005  0.1998  1.0000  -2.1921   0.0000   0.2443
   6.700   0.8359   0.01072   0.00490  -0.0006  0.1972  1.0000  -2.2879   0.0000   0.2444
   6.800   0.8474   0.01083   0.00502  -0.0008  0.1925  1.0000  -2.3847   0.0000   0.2445
   6.900   0.8590   0.01098   0.00514  -0.0011  0.1856  1.0000  -2.4827   0.0000   0.2446
   7.000   0.8706   0.01118   0.00528  -0.0014  0.1771  1.0000  -2.5819   0.0000   0.2449
   7.100   0.8823   0.01140   0.00544  -0.0018  0.1674  1.0000  -2.6822   0.0000   0.2452
   7.200   0.8940   0.01162   0.00563  -0.0021  0.1554  1.0000  -2.7829   0.0000   0.2454
   7.300   0.9055   0.01177   0.00581  -0.0023  0.1489  1.0000  -2.8846   0.0000   0.2455
   7.400   0.9168   0.01189   0.00594  -0.0025  0.1454  1.0000  -2.9883   0.0000   0.2456
   7.500   0.9282   0.01207   0.00609  -0.0028  0.1401  1.0000  -3.0930   0.0000   0.2457
   7.600   0.9395   0.01234   0.00627  -0.0031  0.1336  1.0000  -3.1985   0.0000   0.2459
   7.700   0.9509   0.01264   0.00651  -0.0035  0.1251  1.0000  -3.3038   0.0000   0.2462
   7.800   0.9621   0.01276   0.00665  -0.0037  0.1222  1.0000  -3.4117   0.0000   0.2462
   7.900   0.9733   0.01294   0.00682  -0.0039  0.1171  1.0000  -3.5203   0.0000   0.2462
   8.000   0.9844   0.01321   0.00705  -0.0042  0.1105  1.0000  -3.6292   0.0000   0.2464
   8.100   0.9954   0.01354   0.00731  -0.0046  0.1017  1.0000  -3.7371   0.0000   0.2466
   8.200   1.0065   0.01370   0.00749  -0.0048  0.0978  1.0000  -3.8482   0.0000   0.2466
   8.300   1.0175   0.01388   0.00767  -0.0050  0.0934  1.0000  -3.9603   0.0000   0.2466
   8.400   1.0283   0.01415   0.00790  -0.0053  0.0877  1.0000  -4.0718   0.0000   0.2467
   8.500   1.0389   0.01453   0.00822  -0.0056  0.0800  1.0000  -4.1803   0.0000   0.2468
   8.600   1.0498   0.01467   0.00839  -0.0057  0.0773  1.0000  -4.2957   0.0000   0.2467
   8.700   1.0605   0.01489   0.00860  -0.0059  0.0732  1.0000  -4.4104   0.0000   0.2467
   8.800   1.0709   0.01523   0.00888  -0.0062  0.0683  1.0000  -4.5233   0.0000   0.2468
   8.900   1.0813   0.01553   0.00918  -0.0064  0.0642  1.0000  -4.6361   0.0000   0.2468
   9.000   1.0920   0.01570   0.00938  -0.0065  0.0616  1.0000  -4.7541   0.0000   0.2468
   9.100   1.1024   0.01595   0.00961  -0.0067  0.0582  1.0000  -4.8712   0.0000   0.2467
   9.200   1.1125   0.01627   0.00989  -0.0070  0.0544  1.0000  -4.9865   0.0000   0.2467
   9.300   1.1223   0.01673   0.01034  -0.0072  0.0499  1.0000  -5.0948   0.0000   0.2468
   9.400   1.1329   0.01686   0.01051  -0.0073  0.0488  1.0000  -5.2174   0.0000   0.2467
   9.500   1.1433   0.01704   0.01073  -0.0075  0.0469  1.0000  -5.3386   0.0000   0.2466
   9.600   1.1534   0.01729   0.01098  -0.0076  0.0445  1.0000  -5.4583   0.0000   0.2465
   9.700   1.1633   0.01759   0.01126  -0.0078  0.0419  1.0000  -5.5762   0.0000   0.2465
   9.800   1.1728   0.01797   0.01163  -0.0080  0.0387  1.0000  -5.6894   0.0000   0.2464
   9.900   1.1813   0.01858   0.01227  -0.0082  0.0350  1.0000  -5.7865   0.0000   0.2464
  10.000   1.1916   0.01870   0.01243  -0.0083  0.0341  1.0000  -5.9135   0.0000   0.2463
  10.100   1.2017   0.01889   0.01264  -0.0084  0.0327  1.0000  -6.0373   0.0000   0.2461
  10.200   1.2114   0.01913   0.01290  -0.0085  0.0309  1.0000  -6.1585   0.0000   0.2460
  10.300   1.2207   0.01946   0.01321  -0.0086  0.0289  1.0000  -6.2761   0.0000   0.2460
  10.400   1.2289   0.01997   0.01369  -0.0088  0.0263  1.0000  -6.3803   0.0000   0.2459
  10.500   1.2372   0.02045   0.01420  -0.0089  0.0244  1.0000  -6.4802   0.0000   0.2458
  10.600   1.2464   0.02073   0.01451  -0.0090  0.0230  1.0000  -6.5952   0.0000   0.2457
  10.700   1.2547   0.02113   0.01489  -0.0091  0.0216  1.0000  -6.7055   0.0000   0.2455
  10.800   1.2611   0.02184   0.01558  -0.0093  0.0199  1.0000  -6.7908   0.0000   0.2455
  10.900   1.2695   0.02221   0.01598  -0.0094  0.0188  1.0000  -6.8920   0.0000   0.2454
  11.000   1.2772   0.02266   0.01647  -0.0095  0.0176  1.0000  -6.9900   0.0000   0.2452
  11.100   1.2832   0.02331   0.01711  -0.0096  0.0166  1.0000  -7.0760   0.0000   0.2451
  11.200   1.2883   0.02402   0.01786  -0.0097  0.0157  1.0000  -7.1443   0.0000   0.2450
  11.300   1.2951   0.02449   0.01837  -0.0096  0.0149  1.0000  -7.2489   0.0000   0.2447
  11.400   1.3013   0.02501   0.01892  -0.0096  0.0143  1.0000  -7.3618   0.0000   0.2445
  11.500   1.3066   0.02557   0.01950  -0.0095  0.0137  1.0000  -7.4708   0.0000   0.2443
  11.600   1.3097   0.02621   0.02017  -0.0092  0.0133  1.0000  -7.5620   0.0000   0.2439
  11.700   1.3106   0.02702   0.02100  -0.0088  0.0128  1.0000  -7.6317   0.0000   0.2434
  11.800   1.3095   0.02803   0.02205  -0.0083  0.0125  1.0000  -7.6785   0.0000   0.2428
  11.900   1.3139   0.02858   0.02264  -0.0080  0.0122  1.0000  -7.7789   0.0000   0.2424
  12.000   1.3176   0.02919   0.02331  -0.0077  0.0119  1.0000  -7.8733   0.0000   0.2420
  12.100   1.3204   0.02989   0.02405  -0.0074  0.0117  1.0000  -7.9608   0.0000   0.2416
  12.200   1.3228   0.03063   0.02483  -0.0072  0.0115  1.0000  -8.0458   0.0000   0.2412
  12.300   1.3252   0.03137   0.02561  -0.0070  0.0112  1.0000  -8.1327   0.0000   0.2409
  12.400   1.3278   0.03213   0.02640  -0.0068  0.0110  1.0000  -8.2213   0.0000   0.2406
  12.500   1.3302   0.03290   0.02721  -0.0066  0.0108  1.0000  -8.3096   0.0000   0.2402
  12.600   1.3322   0.03372   0.02805  -0.0064  0.0107  1.0000  -8.3952   0.0000   0.2399
  12.700   1.3335   0.03460   0.02897  -0.0063  0.0105  1.0000  -8.4739   0.0000   0.2396
  12.800   1.3333   0.03564   0.03005  -0.0062  0.0104  1.0000  -8.5379   0.0000   0.2394
  12.900   1.3323   0.03679   0.03123  -0.0061  0.0103  1.0000  -8.5932   0.0000   0.2391
  13.000   1.3307   0.03803   0.03250  -0.0060  0.0102  1.0000  -8.6401   0.0000   0.2389
  13.100   1.3281   0.03938   0.03390  -0.0060  0.0100  1.0000  -8.6747   0.0000   0.2387
  13.200   1.3277   0.04054   0.03510  -0.0059  0.0100  1.0000  -8.7302   0.0000   0.2385
  13.300   1.3284   0.04160   0.03622  -0.0060  0.0099  1.0000  -8.7997   0.0000   0.2383
  13.400   1.3288   0.04267   0.03735  -0.0061  0.0098  1.0000  -8.8672   0.0000   0.2382
  13.500   1.3294   0.04374   0.03846  -0.0061  0.0097  1.0000  -8.9364   0.0000   0.2380
  13.600   1.3300   0.04482   0.03960  -0.0062  0.0095  1.0000  -9.0058   0.0000   0.2379
  13.700   1.3304   0.04592   0.04076  -0.0063  0.0094  1.0000  -9.0745   0.0000   0.2378
  13.800   1.3302   0.04714   0.04203  -0.0065  0.0093  1.0000  -9.1368   0.0000   0.2377
  13.900   1.3292   0.04850   0.04344  -0.0068  0.0092  1.0000  -9.1908   0.0000   0.2378
  14.000   1.3286   0.04981   0.04479  -0.0071  0.0091  1.0000  -9.2498   0.0000   0.2378
  14.100   1.3282   0.05110   0.04612  -0.0074  0.0090  1.0000  -9.3115   0.0000   0.2378
  14.200   1.3279   0.05240   0.04747  -0.0077  0.0089  1.0000  -9.3738   0.0000   0.2379
  14.300   1.3271   0.05378   0.04889  -0.0080  0.0088  1.0000  -9.4311   0.0000   0.2379
  14.400   1.3249   0.05540   0.05056  -0.0086  0.0087  1.0000  -9.4730   0.0000   0.2382
  14.500   1.3232   0.05695   0.05218  -0.0091  0.0087  1.0000  -9.5201   0.0000   0.2384
  14.600   1.3216   0.05845   0.05372  -0.0096  0.0086  1.0000  -9.5696   0.0000   0.2385
  14.700   1.3200   0.05998   0.05529  -0.0100  0.0085  1.0000  -9.6181   0.0000   0.2387
  14.800   1.3179   0.06165   0.05700  -0.0106  0.0085  1.0000  -9.6595   0.0000   0.2389
  14.900   1.3144   0.06361   0.05900  -0.0114  0.0084  1.0000  -9.6827   0.0000   0.2394
  15.000   1.3115   0.06545   0.06088  -0.0121  0.0084  1.0000  -9.7126   0.0000   0.2397
  15.100   1.3089   0.06726   0.06273  -0.0128  0.0083  1.0000  -9.7447   0.0000   0.2400
  15.200   1.3060   0.06911   0.06462  -0.0135  0.0083  1.0000  -9.7733   0.0000   0.2404
  15.300   1.3022   0.07119   0.06674  -0.0143  0.0082  1.0000  -9.7873   0.0000   0.2409
  15.400   1.2976   0.07342   0.06903  -0.0153  0.0082  1.0000  -9.7909   0.0000   0.2415
  15.500   1.2938   0.07551   0.07115  -0.0162  0.0082  1.0000  -9.8028   0.0000   0.2420
  15.600   1.2901   0.07756   0.07324  -0.0170  0.0081  1.0000  -9.8142   0.0000   0.2424
  15.700   1.2861   0.07963   0.07536  -0.0178  0.0081  1.0000  -9.8217   0.0000   0.2429
  15.800   1.2810   0.08201   0.07779  -0.0188  0.0081  1.0000  -9.8126   0.0000   0.2436
  15.900   1.2759   0.08440   0.08022  -0.0199  0.0080  1.0000  -9.8012   0.0000   0.2443
  16.000   1.2711   0.08662   0.08249  -0.0208  0.0080  1.0000  -9.7945   0.0000   0.2448
  16.100   1.2669   0.08881   0.08472  -0.0217  0.0080  1.0000  -9.7929   0.0000   0.2454
  16.200   1.2632   0.09100   0.08697  -0.0226  0.0080  1.0000  -9.7975   0.0000   0.2460
  16.300   1.2580   0.09363   0.08966  -0.0240  0.0080  1.0000  -9.7785   0.0000   0.2470
  16.400   1.2532   0.09616   0.09225  -0.0252  0.0080  1.0000  -9.7643   0.0000   0.2479
  16.500   1.2490   0.09854   0.09467  -0.0264  0.0079  1.0000  -9.7582   0.0000   0.2487
  16.600   1.2450   0.10090   0.09709  -0.0275  0.0079  1.0000  -9.7524   0.0000   0.2494
  16.700   1.2409   0.10331   0.09956  -0.0286  0.0079  1.0000  -9.7433   0.0000   0.2503
  16.800   1.2346   0.10627   0.10257  -0.0302  0.0079  1.0000  -9.7022   0.0000   0.2515
  16.900   1.2292   0.10900   0.10535  -0.0316  0.0079  1.0000  -9.6722   0.0000   0.2525
  17.000   1.2247   0.11153   0.10794  -0.0328  0.0079  1.0000  -9.6537   0.0000   0.2535
  17.100   1.2204   0.11403   0.11048  -0.0341  0.0079  1.0000  -9.6364   0.0000   0.2544
  17.200   1.2160   0.11657   0.11308  -0.0353  0.0079  1.0000  -9.6148   0.0000   0.2554
  17.300   1.2108   0.11927   0.11583  -0.0367  0.0079  1.0000  -9.5821   0.0000   0.2565
  17.400   1.2033   0.12261   0.11923  -0.0386  0.0079  1.0000  -9.5110   0.0000   0.2580
  17.500   1.1981   0.12542   0.12208  -0.0400  0.0079  1.0000  -9.4709   0.0000   0.2592
  17.600   1.1935   0.12802   0.12473  -0.0414  0.0079  1.0000  -9.4405   0.0000   0.2603
  17.700   1.1889   0.13056   0.12731  -0.0426  0.0078  1.0000  -9.4102   0.0000   0.2613
  17.800   1.1844   0.13313   0.12994  -0.0439  0.0078  1.0000  -9.3780   0.0000   0.2624
  17.900   1.1797   0.13581   0.13266  -0.0453  0.0078  1.0000  -9.3393   0.0000   0.2636
  18.000   1.1744   0.13866   0.13557  -0.0468  0.0078  1.0000  -9.2885   0.0000   0.2649
  18.100   1.1661   0.14233   0.13928  -0.0489  0.0079  1.0000  -9.1867   0.0000   0.2668
  18.200   1.1610   0.14528   0.14229  -0.0505  0.0079  1.0000  -9.1305   0.0000   0.2682
  18.300   1.1568   0.14800   0.14505  -0.0519  0.0078  1.0000  -9.0882   0.0000   0.2695
  18.400   1.1529   0.15065   0.14775  -0.0533  0.0078  1.0000  -9.0484   0.0000   0.2707
  18.500   1.1490   0.15332   0.15047  -0.0548  0.0078  1.0000  -9.0061   0.0000   0.2720
  18.600   1.1450   0.15606   0.15325  -0.0563  0.0078  1.0000  -8.9586   0.0000   0.2733
  18.700   1.1408   0.15892   0.15616  -0.0578  0.0078  1.0000  -8.9028   0.0000   0.2747
  18.800   1.1360   0.16198   0.15927  -0.0595  0.0078  1.0000  -8.8328   0.0000   0.2763
  18.900   1.1291   0.16567   0.16301  -0.0616  0.0078  1.0000  -8.7191   0.0000   0.2783
  19.000   1.1229   0.16923   0.16662  -0.0636  0.0078  1.0000  -8.6116   0.0000   0.2804
  19.100   1.1173   0.17267   0.17011  -0.0655  0.0079  1.0000  -8.5102   0.0000   0.2823
  19.200   1.1113   0.17628   0.17377  -0.0675  0.0079  1.0000  -8.3955   0.0000   0.2843
  19.300   1.1036   0.18045   0.17798  -0.0698  0.0079  1.0000  -8.2398   0.0000   0.2868
  19.400   1.0972   0.18429   0.18187  -0.0720  0.0079  1.0000  -8.1019   0.0000   0.2891
  19.500   1.0907   0.18821   0.18584  -0.0741  0.0079  1.0000  -7.9537   0.0000   0.2915
  19.600   1.0829   0.19268   0.19036  -0.0766  0.0080  1.0000  -7.7639   0.0000   0.2943
  19.700   1.0735   0.19785   0.19558  -0.0794  0.0080  1.0000  -7.5210   0.0000   0.2976


