xflr5 v6.48

 Calculated polar for: BOEING-VERTOL VR-7 AIRFOIL

 1 1 Reynolds number fixed          Mach number fixed         

 xtrf =   1.000 (top)        1.000 (bottom)
 Mach =   0.000     Re =     5.000 e 6     Ncrit =   9.000

  alpha     CL        CD       CDp       Cm    Top Xtr Bot Xtr   Cpmin    Chinge    XCp    
 ------- -------- --------- --------- -------- ------- ------- -------- --------- ---------
 -12.000  -0.9258   0.01633   0.01310  -0.0552  0.8953  0.0051  -13.8221   0.0000   0.1776
 -11.800  -0.9221   0.01499   0.01142  -0.0524  0.8442  0.0051  -13.6725   0.0000   0.1807
 -11.700  -0.9170   0.01453   0.01086  -0.0515  0.8290  0.0051  -13.5462   0.0000   0.1814
 -11.600  -0.9112   0.01416   0.01038  -0.0507  0.8092  0.0052  -13.4080   0.0000   0.1821
 -11.500  -0.9044   0.01381   0.00995  -0.0501  0.7999  0.0052  -13.2572   0.0000   0.1825
 -11.400  -0.8973   0.01352   0.00957  -0.0495  0.7870  0.0052  -13.1017   0.0000   0.1828
 -11.300  -0.8899   0.01324   0.00923  -0.0490  0.7711  0.0052  -12.9408   0.0000   0.1830
 -11.200  -0.8819   0.01297   0.00890  -0.0486  0.7656  0.0052  -12.7740   0.0000   0.1831
 -11.100  -0.8737   0.01273   0.00861  -0.0482  0.7598  0.0052  -12.6048   0.0000   0.1832
 -11.000  -0.8653   0.01251   0.00834  -0.0478  0.7529  0.0052  -12.4337   0.0000   0.1832
 -10.900  -0.8568   0.01231   0.00809  -0.0474  0.7452  0.0052  -12.2602   0.0000   0.1832
 -10.800  -0.8477   0.01215   0.00788  -0.0472  0.7362  0.0052  -12.0786   0.0000   0.1830
 -10.700  -0.8389   0.01195   0.00764  -0.0469  0.7296  0.0052  -11.9044   0.0000   0.1829
 -10.600  -0.8298   0.01175   0.00741  -0.0466  0.7272  0.0052  -11.7290   0.0000   0.1827
 -10.500  -0.8208   0.01157   0.00720  -0.0463  0.7235  0.0052  -11.5536   0.0000   0.1825
 -10.400  -0.8116   0.01140   0.00699  -0.0461  0.7176  0.0052  -11.3786   0.0000   0.1823
 -10.300  -0.8025   0.01125   0.00679  -0.0458  0.7099  0.0052  -11.2042   0.0000   0.1821
 -10.000  -0.7744   0.01081   0.00625  -0.0451  0.6879  0.0053  -10.6789   0.0000   0.1812
  -9.900  -0.7647   0.01067   0.00608  -0.0449  0.6851  0.0053  -10.5035   0.0000   0.1809
  -9.800  -0.7551   0.01053   0.00592  -0.0447  0.6819  0.0053  -10.3287   0.0000   0.1804
  -9.700  -0.7454   0.01040   0.00576  -0.0446  0.6784  0.0053  -10.1546   0.0000   0.1800
  -9.600  -0.7356   0.01028   0.00561  -0.0444  0.6749  0.0053  -9.9811   0.0000   0.1795
  -9.500  -0.7258   0.01016   0.00546  -0.0442  0.6716  0.0053  -9.8082   0.0000   0.1790
  -9.400  -0.7159   0.01004   0.00532  -0.0441  0.6684  0.0053  -9.6360   0.0000   0.1785
  -9.300  -0.7060   0.00993   0.00518  -0.0440  0.6649  0.0053  -9.4644   0.0000   0.1779
  -9.200  -0.6960   0.00982   0.00505  -0.0438  0.6611  0.0053  -9.2935   0.0000   0.1773
  -9.100  -0.6859   0.00971   0.00492  -0.0437  0.6573  0.0053  -9.1234   0.0000   0.1766
  -9.000  -0.6758   0.00960   0.00479  -0.0436  0.6537  0.0053  -8.9543   0.0000   0.1759
  -8.900  -0.6657   0.00949   0.00467  -0.0435  0.6507  0.0054  -8.7861   0.0000   0.1752
  -8.800  -0.6555   0.00938   0.00454  -0.0434  0.6498  0.0054  -8.6191   0.0000   0.1744
  -8.700  -0.6454   0.00925   0.00438  -0.0433  0.6493  0.0054  -8.4584   0.0000   0.1736
  -8.600  -0.6351   0.00915   0.00428  -0.0432  0.6489  0.0054  -8.2917   0.0000   0.1727
  -8.500  -0.6247   0.00905   0.00417  -0.0431  0.6483  0.0054  -8.1261   0.0000   0.1718
  -8.400  -0.6143   0.00896   0.00407  -0.0430  0.6475  0.0054  -7.9616   0.0000   0.1708
  -8.300  -0.6039   0.00887   0.00398  -0.0430  0.6467  0.0055  -7.7984   0.0000   0.1698
  -8.200  -0.5935   0.00879   0.00388  -0.0429  0.6457  0.0055  -7.6363   0.0000   0.1687
  -8.100  -0.5830   0.00870   0.00379  -0.0429  0.6445  0.0055  -7.4754   0.0000   0.1676
  -8.000  -0.5726   0.00862   0.00370  -0.0428  0.6432  0.0055  -7.3158   0.0000   0.1664
  -7.900  -0.5621   0.00854   0.00361  -0.0427  0.6416  0.0055  -7.1574   0.0000   0.1651
  -7.800  -0.5516   0.00847   0.00352  -0.0427  0.6400  0.0055  -7.0004   0.0000   0.1638
  -7.700  -0.5410   0.00840   0.00344  -0.0426  0.6381  0.0055  -6.8447   0.0000   0.1625
  -7.600  -0.5305   0.00833   0.00336  -0.0426  0.6362  0.0056  -6.6903   0.0000   0.1611
  -7.500  -0.5200   0.00826   0.00328  -0.0425  0.6342  0.0056  -6.5373   0.0000   0.1596
  -7.400  -0.5094   0.00819   0.00320  -0.0425  0.6320  0.0056  -6.3855   0.0000   0.1580
  -7.300  -0.4988   0.00813   0.00312  -0.0425  0.6298  0.0056  -6.2351   0.0000   0.1563
  -7.200  -0.4882   0.00807   0.00305  -0.0424  0.6274  0.0056  -6.0859   0.0000   0.1546
  -7.100  -0.4775   0.00801   0.00298  -0.0424  0.6247  0.0056  -5.9380   0.0000   0.1528
  -7.000  -0.4669   0.00794   0.00291  -0.0424  0.6220  0.0057  -5.7917   0.0000   0.1508
  -6.900  -0.4562   0.00788   0.00283  -0.0423  0.6191  0.0059  -5.6493   0.0000   0.1488
  -6.800  -0.4455   0.00782   0.00276  -0.0423  0.6166  0.0060  -5.5470   0.0000   0.1466
  -6.700  -0.4348   0.00776   0.00270  -0.0423  0.6142  0.0062  -5.4450   0.0000   0.1443
  -6.600  -0.4240   0.00770   0.00264  -0.0423  0.6120  0.0065  -5.3432   0.0000   0.1419
  -6.500  -0.4133   0.00764   0.00258  -0.0423  0.6101  0.0067  -5.2416   0.0000   0.1393
  -6.400  -0.4024   0.00758   0.00253  -0.0423  0.6099  0.0069  -5.1400   0.0000   0.1366
  -6.300  -0.3916   0.00752   0.00248  -0.0423  0.6097  0.0071  -5.0388   0.0000   0.1336
  -6.200  -0.3807   0.00747   0.00243  -0.0423  0.6096  0.0074  -4.9381   0.0000   0.1305
  -6.100  -0.3698   0.00741   0.00238  -0.0423  0.6094  0.0075  -4.8385   0.0000   0.1272
  -6.000  -0.3589   0.00736   0.00233  -0.0424  0.6092  0.0076  -4.7430   0.0000   0.1237
  -5.900  -0.3480   0.00730   0.00226  -0.0424  0.6089  0.0075  -4.6510   0.0000   0.1199
  -5.800  -0.3371   0.00725   0.00222  -0.0424  0.6086  0.0078  -4.5524   0.0000   0.1159
  -5.700  -0.3261   0.00720   0.00218  -0.0424  0.6082  0.0080  -4.4541   0.0000   0.1116
  -5.600  -0.3152   0.00715   0.00214  -0.0424  0.6077  0.0083  -4.3560   0.0000   0.1069
  -5.500  -0.3042   0.00710   0.00211  -0.0425  0.6070  0.0085  -4.2580   0.0000   0.1019
  -5.400  -0.2932   0.00706   0.00207  -0.0425  0.6062  0.0087  -4.1599   0.0000   0.0965
  -5.300  -0.2822   0.00703   0.00205  -0.0425  0.6050  0.0090  -4.0613   0.0000   0.0906
  -5.200  -0.2712   0.00700   0.00203  -0.0426  0.6034  0.0092  -3.9616   0.0000   0.0842
  -5.100  -0.2601   0.00699   0.00202  -0.0427  0.6011  0.0094  -3.8589   0.0000   0.0772
  -5.000  -0.2489   0.00699   0.00204  -0.0427  0.5982  0.0096  -3.7499   0.0000   0.0694
  -4.900  -0.2189   0.01180   0.00740  -0.0480  0.5929  0.0169  -2.6238   0.0000   0.0216
  -4.800  -0.2084   0.01173   0.00731  -0.0480  0.5899  0.0174  -2.5488   0.0000   0.0105
  -4.700  -0.1977   0.01166   0.00723  -0.0479  0.5868  0.0178  -2.4753   0.0000  -0.0020
  -4.600  -0.1870   0.01161   0.00716  -0.0479  0.5833  0.0183  -2.4022   0.0000  -0.0160
  -4.500  -0.1762   0.01159   0.00713  -0.0479  0.5795  0.0187  -2.3286   0.0000  -0.0320
  -4.400  -0.1653   0.01161   0.00714  -0.0479  0.5757  0.0192  -2.2526   0.0000  -0.0505
  -4.300  -0.1541   0.01173   0.00726  -0.0480  0.5723  0.0196  -2.1708   0.0000  -0.0723
  -4.200  -0.1425   0.01201   0.00756  -0.0482  0.5700  0.0200  -2.0766   0.0000  -0.0991
  -4.100  -0.1311   0.01224   0.00780  -0.0483  0.5696  0.0202  -1.9906   0.0000  -0.1302
  -4.000  -0.1201   0.01218   0.00774  -0.0483  0.5691  0.0203  -1.9290   0.0000  -0.1642
  -3.900  -0.1094   0.01201   0.00755  -0.0482  0.5684  0.0204  -1.8768   0.0000  -0.2038
  -3.800  -0.0988   0.01180   0.00733  -0.0481  0.5676  0.0204  -1.8286   0.0000  -0.2514
  -3.700  -0.0882   0.01157   0.00707  -0.0481  0.5664  0.0204  -1.7827   0.0000  -0.3102
  -3.600  -0.0776   0.01134   0.00681  -0.0480  0.5647  0.0205  -1.7380   0.0000  -0.3848
  -3.500  -0.0670   0.01110   0.00655  -0.0479  0.5624  0.0205  -1.6943   0.0000  -0.4829
  -3.200  -0.0353   0.01042   0.00577  -0.0476  0.5525  0.0205  -1.5662   0.0000  -1.1274
  -3.100  -0.0247   0.01023   0.00555  -0.0475  0.5492  0.0206  -1.5222   0.0000  -1.7151
  -2.600   0.0175   0.00669   0.00170  -0.0442  0.5317  0.0142  -1.6716   0.0000   2.8304
  -2.500   0.0282   0.00659   0.00157  -0.0441  0.5298  0.0137  -1.6272   0.0000   1.8424
  -2.400   0.0392   0.00652   0.00149  -0.0441  0.5292  0.0134  -1.5741   0.0000   1.3951
  -2.300   0.0502   0.00646   0.00142  -0.0441  0.5277  0.0131  -1.5190   0.0000   1.1431
  -2.200   0.0610   0.00643   0.00137  -0.0441  0.5230  0.0129  -1.4637   0.0000   0.9828
  -2.100   0.0714   0.00645   0.00132  -0.0440  0.5097  0.0127  -1.4097   0.0000   0.8743
  -2.000   0.0819   0.00647   0.00128  -0.0439  0.4900  0.0125  -1.3556   0.0000   0.7928
  -1.900   0.0927   0.00645   0.00124  -0.0439  0.4846  0.0124  -1.3007   0.0000   0.7284
  -1.800   0.1030   0.00650   0.00121  -0.0437  0.4691  0.0122  -1.2488   0.0000   0.6793
  -1.700   0.1135   0.00653   0.00118  -0.0437  0.4500  0.0121  -1.1971   0.0000   0.6384
  -1.500   0.1354   0.00649   0.00111  -0.0437  0.4421  0.0118  -1.0933   0.0000   0.5747
  -1.400   0.1454   0.00658   0.00111  -0.0435  0.4197  0.0117  -1.0449   0.0000   0.5511
  -1.300   0.1560   0.00660   0.00108  -0.0435  0.4055  0.0116  -0.9954   0.0000   0.5299
  -1.200   0.1667   0.00661   0.00106  -0.0434  0.3979  0.0115  -0.9465   0.0000   0.5114
  -1.100   0.1774   0.00664   0.00104  -0.0434  0.3901  0.0114  -0.8984   0.0000   0.4951
  -1.000   0.1882   0.00664   0.00101  -0.0433  0.3827  0.0113  -0.8507   0.0000   0.4806
  -0.900   0.1992   0.00664   0.00099  -0.0433  0.3752  0.0112  -0.8034   0.0000   0.4677
  -0.800   0.2103   0.00662   0.00095  -0.0434  0.3700  0.0112  -0.7565   0.0000   0.4561
  -0.700   0.2215   0.00660   0.00092  -0.0434  0.3692  0.0111  -0.7103   0.0000   0.4456
  -0.600   0.2326   0.00655   0.00082  -0.0433  0.3681  0.0156  -0.7159   0.0000   0.4356
  -0.500   0.2438   0.00654   0.00082  -0.0434  0.3668  0.0167  -0.6648   0.0000   0.4271
  -0.400   0.2549   0.00654   0.00082  -0.0434  0.3645  0.0175  -0.6623   0.0000   0.4193
  -0.300   0.2658   0.00656   0.00082  -0.0434  0.3588  0.0182  -0.6710   0.0000   0.4122
  -0.200   0.2762   0.00663   0.00084  -0.0434  0.3470  0.0188  -0.6793   0.0000   0.4057
  -0.100   0.2868   0.00667   0.00086  -0.0433  0.3327  0.0193  -0.6877   0.0000   0.3996
   0.000   0.2979   0.00668   0.00085  -0.0434  0.3274  0.0198  -0.6965   0.0000   0.3939
   0.100   0.3085   0.00673   0.00087  -0.0433  0.3194  0.0203  -0.7053   0.0000   0.3887
   0.200   0.3184   0.00684   0.00091  -0.0432  0.3004  0.0233  -0.7135   0.0000   0.3837
   0.300   0.3291   0.00686   0.00092  -0.0432  0.2881  0.0303  -0.7222   0.0000   0.3791
   0.400   0.3396   0.00693   0.00094  -0.0431  0.2781  0.0334  -0.7319   0.0000   0.3748
   0.500   0.3494   0.00703   0.00099  -0.0429  0.2582  0.0385  -0.7409   0.0000   0.3707
   0.700   0.3703   0.00716   0.00105  -0.0428  0.2386  0.0442  -0.7604   0.0000   0.3632
   0.800   0.3807   0.00721   0.00107  -0.0427  0.2250  0.0497  -0.7702   0.0000   0.3597
   0.900   0.3916   0.00718   0.00108  -0.0427  0.2237  0.0677  -0.7794   0.0000   0.3565
   1.000   0.4009   0.00736   0.00115  -0.0425  0.1981  0.0690  -0.7905   0.0000   0.3533
   1.100   0.4113   0.00743   0.00119  -0.0424  0.1893  0.0697  -0.7932   0.0000   0.3503
   1.200   0.4219   0.00749   0.00122  -0.0424  0.1807  0.0701  -0.7982   0.0000   0.3475
   1.400   0.4435   0.00757   0.00127  -0.0424  0.1712  0.0710  -0.8198   0.0000   0.3424
   1.500   0.4540   0.00763   0.00130  -0.0423  0.1625  0.0733  -0.8321   0.0000   0.3400
   1.600   0.4649   0.00765   0.00132  -0.0423  0.1585  0.0776  -0.8432   0.0000   0.3377
   1.700   0.4759   0.00766   0.00133  -0.0423  0.1577  0.0809  -0.8539   0.0000   0.3356
   1.800   0.4856   0.00779   0.00140  -0.0422  0.1383  0.0827  -0.8680   0.0000   0.3333
   1.900   0.4963   0.00783   0.00143  -0.0421  0.1334  0.0848  -0.8792   0.0000   0.3313
   2.000   0.5060   0.00773   0.00146  -0.0419  0.1286  0.1598  -0.8895   0.0000   0.3292
   2.100   0.5162   0.00768   0.00148  -0.0419  0.1232  0.1982  -0.8998   0.0000   0.3273
   2.200   0.5268   0.00681   0.00135  -0.0420  0.1714  0.4258  -0.9058   0.0000   0.3258
   2.300   0.5377   0.00672   0.00135  -0.0420  0.1743  0.4564  -0.9189   0.0000   0.3241
   2.400   0.5481   0.00666   0.00137  -0.0419  0.1735  0.4879  -0.9318   0.0000   0.3224
   2.500   0.5584   0.00662   0.00140  -0.0418  0.1713  0.5187  -0.9449   0.0000   0.3208
   2.600   0.5691   0.00665   0.00143  -0.0418  0.1681  0.5273  -0.9582   0.0000   0.3192
   2.700   0.5799   0.00669   0.00146  -0.0418  0.1642  0.5302  -0.9724   0.0000   0.3177
   2.800   0.5907   0.00671   0.00149  -0.0418  0.1602  0.5435  -0.9882   0.0000   0.3163
   2.900   0.6012   0.00668   0.00152  -0.0417  0.1591  0.5629  -1.0040   0.0000   0.3149
   3.000   0.6116   0.00664   0.00155  -0.0417  0.1575  0.5945  -1.0196   0.0000   0.3135
   3.100   0.6221   0.00660   0.00157  -0.0416  0.1570  0.6236  -1.0355   0.0000   0.3122
   3.200   0.6306   0.00665   0.00166  -0.0412  0.1398  0.6661  -1.0495   0.0000   0.3105
   3.300   0.6401   0.00658   0.00170  -0.0410  0.1366  0.7138  -1.0647   0.0000   0.3091
   3.400   0.6493   0.00652   0.00175  -0.0406  0.1330  0.7644  -1.0797   0.0000   0.3076
   3.500   0.6588   0.00652   0.00180  -0.0404  0.1280  0.7958  -1.0950   0.0000   0.3062
   3.600   0.6688   0.00654   0.00185  -0.0402  0.1210  0.8136  -1.1107   0.0000   0.3049
   3.700   0.6786   0.00652   0.00188  -0.0400  0.1191  0.8400  -1.1267   0.0000   0.3036
   3.800   0.6885   0.00652   0.00192  -0.0398  0.1169  0.8607  -1.1434   0.0000   0.3023
   3.900   0.6963   0.00671   0.00205  -0.0392  0.0948  0.8780  -1.1531   0.0000   0.3008
   4.000   0.7037   0.00688   0.00218  -0.0385  0.0738  0.8982  -1.1603   0.0000   0.2991
   4.100   0.7119   0.00703   0.00230  -0.0380  0.0584  0.9136  -1.1806   0.0000   0.2977
   4.200   0.7210   0.00707   0.00236  -0.0376  0.0548  0.9307  -1.2001   0.0000   0.2963
   4.300   0.7304   0.00711   0.00242  -0.0372  0.0508  0.9452  -1.2303   0.0000   0.2951
   4.400   0.7413   0.00714   0.00247  -0.0372  0.0496  0.9586  -1.2806   0.0000   0.2942
   4.500   0.7550   0.00720   0.00253  -0.0379  0.0482  0.9705  -1.3377   0.0000   0.2941
   4.600   0.7680   0.00737   0.00264  -0.0384  0.0359  0.9778  -1.3930   0.0000   0.2938
   4.700   0.7822   0.00747   0.00272  -0.0392  0.0302  0.9817  -1.4521   0.0000   0.2938
   4.800   0.7964   0.00764   0.00283  -0.0401  0.0203  0.9848  -1.5115   0.0000   0.2939
   4.900   0.8105   0.00771   0.00288  -0.0408  0.0196  0.9873  -1.5721   0.0000   0.2938
   5.000   0.8238   0.00778   0.00294  -0.0414  0.0189  0.9895  -1.6314   0.0000   0.2936
   5.100   0.8368   0.00785   0.00299  -0.0419  0.0181  0.9913  -1.6904   0.0000   0.2933
   5.200   0.8494   0.00793   0.00305  -0.0423  0.0173  0.9926  -1.7491   0.0000   0.2930
   5.300   0.8618   0.00801   0.00311  -0.0427  0.0163  0.9937  -1.8074   0.0000   0.2926
   6.000   0.9467   0.00858   0.00371  -0.0446  0.0110  0.9977  -2.1341   0.0000   0.2894
   6.100   0.9589   0.00859   0.00369  -0.0452  0.0102  0.9980  -2.3166   0.0000   0.2892
   6.200   0.9705   0.00869   0.00378  -0.0454  0.0094  0.9983  -2.3870   0.0000   0.2888
   6.300   0.9823   0.00881   0.00388  -0.0457  0.0080  0.9985  -2.4565   0.0000   0.2884
   6.400   0.9950   0.00893   0.00398  -0.0462  0.0070  0.9989  -2.5265   0.0000   0.2881
   6.500   1.0082   0.00902   0.00406  -0.0468  0.0062  0.9991  -2.5979   0.0000   0.2880
   6.600   1.0215   0.00911   0.00414  -0.0473  0.0057  0.9994  -2.6697   0.0000   0.2878
   6.700   1.0344   0.00920   0.00421  -0.0478  0.0055  0.9995  -2.7404   0.0000   0.2876
   6.800   1.0466   0.00928   0.00429  -0.0482  0.0054  0.9997  -2.8094   0.0000   0.2873
   6.900   1.0583   0.00936   0.00437  -0.0484  0.0054  0.9998  -2.8777   0.0000   0.2868
   7.000   1.0700   0.00945   0.00444  -0.0486  0.0053  0.9999  -2.9464   0.0000   0.2864
   7.100   1.0816   0.00953   0.00452  -0.0489  0.0053  1.0000  -3.0155   0.0000   0.2860
   7.200   1.0910   0.00961   0.00459  -0.0486  0.0052  1.0000  -3.0783   0.0000   0.2852
   7.300   1.0998   0.00969   0.00467  -0.0482  0.0052  1.0000  -3.1396   0.0000   0.2844
   7.400   1.1086   0.00977   0.00475  -0.0478  0.0052  1.0000  -3.2016   0.0000   0.2835
   7.500   1.1182   0.00980   0.00478  -0.0475  0.0061  1.0000  -3.2570   0.0000   0.2828
   7.600   1.1273   0.00987   0.00485  -0.0472  0.0066  1.0000  -3.3191   0.0000   0.2820
   7.700   1.1364   0.00995   0.00493  -0.0469  0.0065  1.0000  -3.3828   0.0000   0.2812
   7.800   1.1454   0.01004   0.00501  -0.0465  0.0062  1.0000  -3.4473   0.0000   0.2805
   7.900   1.1544   0.01013   0.00509  -0.0462  0.0059  1.0000  -3.5125   0.0000   0.2797
   8.000   1.1634   0.01022   0.00518  -0.0458  0.0057  1.0000  -3.5783   0.0000   0.2790
   8.100   1.1725   0.01031   0.00526  -0.0455  0.0055  1.0000  -3.6444   0.0000   0.2783
   8.200   1.1815   0.01040   0.00535  -0.0452  0.0055  1.0000  -3.7109   0.0000   0.2775
   8.300   1.1906   0.01049   0.00544  -0.0448  0.0054  1.0000  -3.7777   0.0000   0.2768
   8.400   1.1996   0.01058   0.00553  -0.0445  0.0054  1.0000  -3.8449   0.0000   0.2761
   8.500   1.2086   0.01068   0.00563  -0.0442  0.0053  1.0000  -3.9125   0.0000   0.2754
   8.600   1.2175   0.01077   0.00572  -0.0438  0.0053  1.0000  -3.9804   0.0000   0.2747
   8.700   1.2264   0.01087   0.00582  -0.0435  0.0053  1.0000  -4.0486   0.0000   0.2740
   8.800   1.2353   0.01097   0.00591  -0.0431  0.0052  1.0000  -4.1172   0.0000   0.2733
   8.900   1.2442   0.01107   0.00601  -0.0428  0.0052  1.0000  -4.1860   0.0000   0.2727
   9.000   1.2529   0.01117   0.00611  -0.0424  0.0052  1.0000  -4.2551   0.0000   0.2720
   9.100   1.2617   0.01127   0.00621  -0.0420  0.0051  1.0000  -4.3245   0.0000   0.2713
   9.200   1.2704   0.01137   0.00631  -0.0417  0.0051  1.0000  -4.3941   0.0000   0.2706
   9.300   1.2790   0.01148   0.00642  -0.0413  0.0051  1.0000  -4.4640   0.0000   0.2699
   9.400   1.2876   0.01158   0.00653  -0.0409  0.0051  1.0000  -4.5340   0.0000   0.2693
   9.500   1.2961   0.01169   0.00663  -0.0405  0.0050  1.0000  -4.6043   0.0000   0.2686
   9.600   1.3045   0.01180   0.00674  -0.0401  0.0050  1.0000  -4.6747   0.0000   0.2679
   9.700   1.3129   0.01191   0.00685  -0.0396  0.0050  1.0000  -4.7452   0.0000   0.2672
   9.800   1.3212   0.01202   0.00697  -0.0392  0.0050  1.0000  -4.8159   0.0000   0.2665
   9.900   1.3294   0.01214   0.00708  -0.0388  0.0049  1.0000  -4.8867   0.0000   0.2659
  10.000   1.3375   0.01225   0.00720  -0.0383  0.0049  1.0000  -4.9576   0.0000   0.2652
  10.100   1.3447   0.01242   0.00739  -0.0377  0.0047  1.0000  -5.0327   0.0000   0.2644
  10.200   1.3524   0.01255   0.00753  -0.0371  0.0047  1.0000  -5.1047   0.0000   0.2637
  10.300   1.3600   0.01268   0.00767  -0.0366  0.0047  1.0000  -5.1762   0.0000   0.2630
  10.400   1.3676   0.01281   0.00781  -0.0360  0.0046  1.0000  -5.2475   0.0000   0.2622
  10.500   1.3751   0.01295   0.00794  -0.0354  0.0046  1.0000  -5.3186   0.0000   0.2615
  10.600   1.3824   0.01308   0.00808  -0.0349  0.0046  1.0000  -5.3896   0.0000   0.2608
  10.700   1.3896   0.01322   0.00822  -0.0342  0.0046  1.0000  -5.4603   0.0000   0.2600
  10.800   1.3968   0.01336   0.00837  -0.0336  0.0045  1.0000  -5.5311   0.0000   0.2593
  10.900   1.4039   0.01351   0.00853  -0.0330  0.0045  1.0000  -5.6019   0.0000   0.2586
  11.000   1.4103   0.01365   0.00868  -0.0322  0.0045  1.0000  -5.6701   0.0000   0.2578
  11.100   1.4146   0.01379   0.00882  -0.0311  0.0045  1.0000  -5.7307   0.0000   0.2567
  11.200   1.4183   0.01392   0.00897  -0.0298  0.0045  1.0000  -5.7888   0.0000   0.2556
  11.300   1.4225   0.01406   0.00911  -0.0286  0.0045  1.0000  -5.8494   0.0000   0.2545
  11.400   1.4273   0.01421   0.00927  -0.0275  0.0045  1.0000  -5.9124   0.0000   0.2535
  11.500   1.4325   0.01436   0.00943  -0.0266  0.0044  1.0000  -5.9770   0.0000   0.2526
  11.600   1.4379   0.01452   0.00960  -0.0257  0.0044  1.0000  -6.0426   0.0000   0.2518
  11.700   1.4428   0.01469   0.00978  -0.0248  0.0044  1.0000  -6.1066   0.0000   0.2509
  11.800   1.4476   0.01487   0.00997  -0.0238  0.0044  1.0000  -6.1704   0.0000   0.2500
  11.900   1.4527   0.01505   0.01016  -0.0230  0.0044  1.0000  -6.2355   0.0000   0.2492
  12.000   1.4580   0.01524   0.01036  -0.0221  0.0044  1.0000  -6.3018   0.0000   0.2484
  12.100   1.4632   0.01544   0.01057  -0.0213  0.0044  1.0000  -6.3679   0.0000   0.2476
  12.200   1.4688   0.01561   0.01075  -0.0206  0.0044  1.0000  -6.4328   0.0000   0.2469
  12.300   1.4741   0.01581   0.01096  -0.0199  0.0044  1.0000  -6.4984   0.0000   0.2461
  12.400   1.4793   0.01603   0.01118  -0.0191  0.0044  1.0000  -6.5645   0.0000   0.2454
  12.500   1.4840   0.01626   0.01143  -0.0184  0.0044  1.0000  -6.6291   0.0000   0.2447
  12.600   1.4888   0.01650   0.01168  -0.0176  0.0044  1.0000  -6.6942   0.0000   0.2439
  12.700   1.4937   0.01675   0.01194  -0.0169  0.0044  1.0000  -6.7725   0.0000   0.2432
  12.800   1.4983   0.01702   0.01223  -0.0162  0.0043  1.0000  -6.8840   0.0000   0.2425
  12.900   1.5026   0.01731   0.01253  -0.0155  0.0043  1.0000  -6.9938   0.0000   0.2418
  13.000   1.5072   0.01760   0.01284  -0.0148  0.0043  1.0000  -7.1066   0.0000   0.2412
  13.100   1.5119   0.01790   0.01314  -0.0142  0.0043  1.0000  -7.2215   0.0000   0.2405
  13.200   1.5159   0.01823   0.01349  -0.0135  0.0043  1.0000  -7.3307   0.0000   0.2399
  13.300   1.5196   0.01857   0.01385  -0.0128  0.0043  1.0000  -7.4385   0.0000   0.2392
  13.400   1.5238   0.01891   0.01420  -0.0122  0.0043  1.0000  -7.5507   0.0000   0.2386
  13.500   1.5282   0.01925   0.01455  -0.0116  0.0043  1.0000  -7.6651   0.0000   0.2380
  13.600   1.5317   0.01965   0.01497  -0.0110  0.0043  1.0000  -7.7731   0.0000   0.2373
  13.700   1.5351   0.02007   0.01541  -0.0104  0.0043  1.0000  -7.8802   0.0000   0.2367
  13.800   1.5390   0.02047   0.01583  -0.0099  0.0042  1.0000  -7.9923   0.0000   0.2362
  13.900   1.5431   0.02088   0.01625  -0.0093  0.0042  1.0000  -8.1064   0.0000   0.2356
  14.000   1.5459   0.02138   0.01677  -0.0088  0.0042  1.0000  -8.2101   0.0000   0.2350
  14.100   1.5489   0.02188   0.01728  -0.0083  0.0042  1.0000  -8.3167   0.0000   0.2345
  14.200   1.5526   0.02234   0.01776  -0.0079  0.0042  1.0000  -8.4286   0.0000   0.2340
  14.300   1.5564   0.02280   0.01824  -0.0074  0.0042  1.0000  -8.5423   0.0000   0.2335
  14.400   1.5578   0.02345   0.01892  -0.0069  0.0042  1.0000  -8.6334   0.0000   0.2329
  14.500   1.5597   0.02408   0.01957  -0.0065  0.0042  1.0000  -8.7305   0.0000   0.2324
  14.600   1.5625   0.02463   0.02014  -0.0061  0.0041  1.0000  -8.8359   0.0000   0.2319
  14.700   1.5655   0.02517   0.02070  -0.0057  0.0041  1.0000  -8.9440   0.0000   0.2315
  14.800   1.5674   0.02582   0.02137  -0.0053  0.0041  1.0000  -9.0429   0.0000   0.2310
  14.900   1.5687   0.02655   0.02213  -0.0049  0.0041  1.0000  -9.1362   0.0000   0.2305
  15.000   1.5711   0.02718   0.02278  -0.0046  0.0041  1.0000  -9.2401   0.0000   0.2301
  15.100   1.5737   0.02780   0.02341  -0.0043  0.0041  1.0000  -9.3467   0.0000   0.2297
  15.200   1.5763   0.02842   0.02405  -0.0039  0.0041  1.0000  -9.4535   0.0000   0.2292
  15.300   1.5766   0.02929   0.02495  -0.0037  0.0041  1.0000  -9.5383   0.0000   0.2288
  15.400   1.5777   0.03008   0.02576  -0.0034  0.0041  1.0000  -9.6321   0.0000   0.2284
  15.500   1.5796   0.03078   0.02649  -0.0031  0.0041  1.0000  -9.7334   0.0000   0.2280
  15.600   1.5817   0.03148   0.02721  -0.0028  0.0041  1.0000  -9.8362   0.0000   0.2276
  15.700   1.5834   0.03220   0.02795  -0.0026  0.0041  1.0000  -9.9371   0.0000   0.2272
  15.800   1.5820   0.03329   0.02907  -0.0024  0.0041  1.0000  -10.0069   0.0000   0.2269
  15.900   1.5826   0.03416   0.02996  -0.0022  0.0040  1.0000  -10.0968   0.0000   0.2265
  16.000   1.5838   0.03494   0.03076  -0.0020  0.0040  1.0000  -10.1927   0.0000   0.2261
  16.100   1.5850   0.03570   0.03155  -0.0017  0.0040  1.0000  -10.2892   0.0000   0.2257
  16.200   1.5861   0.03649   0.03236  -0.0015  0.0040  1.0000  -10.3849   0.0000   0.2253
  16.300   1.5841   0.03764   0.03354  -0.0013  0.0040  1.0000  -10.4501   0.0000   0.2250
  16.400   1.5826   0.03878   0.03470  -0.0012  0.0040  1.0000  -10.5196   0.0000   0.2247
  16.500   1.5830   0.03969   0.03564  -0.0011  0.0040  1.0000  -10.6088   0.0000   0.2243
  16.600   1.5838   0.04057   0.03654  -0.0009  0.0040  1.0000  -10.7018   0.0000   0.2240
  16.700   1.5846   0.04145   0.03744  -0.0008  0.0040  1.0000  -10.7950   0.0000   0.2237
  16.800   1.5852   0.04236   0.03837  -0.0006  0.0040  1.0000  -10.8868   0.0000   0.2233
  16.900   1.5855   0.04334   0.03938  -0.0006  0.0040  1.0000  -10.9775   0.0000   0.2231
  17.000   1.5809   0.04493   0.04101  -0.0007  0.0040  1.0000  -11.0159   0.0000   0.2229
  17.100   1.5805   0.04600   0.04211  -0.0007  0.0040  1.0000  -11.0975   0.0000   0.2226
  17.200   1.5808   0.04701   0.04314  -0.0006  0.0040  1.0000  -11.1856   0.0000   0.2223
  17.300   1.5810   0.04801   0.04417  -0.0006  0.0040  1.0000  -11.2736   0.0000   0.2221
  17.400   1.5810   0.04905   0.04523  -0.0006  0.0040  1.0000  -11.3593   0.0000   0.2218
  17.500   1.5805   0.05016   0.04636  -0.0006  0.0040  1.0000  -11.4402   0.0000   0.2216
  17.600   1.5734   0.05215   0.04840  -0.0010  0.0040  1.0000  -11.4493   0.0000   0.2215
  17.700   1.5719   0.05339   0.04966  -0.0011  0.0040  1.0000  -11.5186   0.0000   0.2213
  17.800   1.5713   0.05453   0.05083  -0.0011  0.0040  1.0000  -11.5979   0.0000   0.2211
  17.900   1.5708   0.05568   0.05200  -0.0012  0.0040  1.0000  -11.6777   0.0000   0.2209
  18.000   1.5701   0.05686   0.05321  -0.0013  0.0039  1.0000  -11.7550   0.0000   0.2207
  18.100   1.5688   0.05811   0.05449  -0.0014  0.0039  1.0000  -11.8272   0.0000   0.2205
  18.200   1.5603   0.06048   0.05691  -0.0020  0.0039  1.0000  -11.8168   0.0000   0.2207
  18.300   1.5581   0.06192   0.05837  -0.0023  0.0039  1.0000  -11.8775   0.0000   0.2206
  18.400   1.5568   0.06323   0.05971  -0.0025  0.0039  1.0000  -11.9473   0.0000   0.2204
  18.500   1.5555   0.06454   0.06105  -0.0026  0.0039  1.0000  -12.0175   0.0000   0.2203
  18.600   1.5541   0.06588   0.06241  -0.0029  0.0039  1.0000  -12.0868   0.0000   0.2202
  18.700   1.5522   0.06730   0.06386  -0.0031  0.0039  1.0000  -12.1505   0.0000   0.2201
  18.800   1.5414   0.07010   0.06672  -0.0041  0.0039  1.0000  -12.1103   0.0000   0.2204
  18.900   1.5386   0.07168   0.06832  -0.0044  0.0039  1.0000  -12.1619   0.0000   0.2204
  19.000   1.5368   0.07311   0.06978  -0.0047  0.0039  1.0000  -12.2245   0.0000   0.2203
  19.100   1.5351   0.07453   0.07123  -0.0050  0.0039  1.0000  -12.2891   0.0000   0.2203
  19.200   1.5331   0.07597   0.07270  -0.0053  0.0039  1.0000  -12.3487   0.0000   0.2202
  19.300   1.5303   0.07751   0.07427  -0.0057  0.0039  1.0000  -12.4001   0.0000   0.2202
  19.400   1.5181   0.08056   0.07737  -0.0067  0.0039  1.0000  -12.3385   0.0000   0.2207
  19.500   1.5134   0.08250   0.07934  -0.0073  0.0039  1.0000  -12.3644   0.0000   0.2208
  19.600   1.5104   0.08416   0.08104  -0.0078  0.0039  1.0000  -12.4106   0.0000   0.2208
  19.700   1.5075   0.08582   0.08272  -0.0082  0.0039  1.0000  -12.4577   0.0000   0.2209
  19.800   1.5042   0.08754   0.08448  -0.0087  0.0039  1.0000  -12.4996   0.0000   0.2209
  19.900   1.5000   0.08940   0.08638  -0.0093  0.0039  1.0000  -12.5303   0.0000   0.2211
  20.000   1.4846   0.09322   0.09025  -0.0109  0.0039  1.0000  -12.4199   0.0000   0.2219
  20.100   1.4811   0.09502   0.09208  -0.0115  0.0039  1.0000  -12.4568   0.0000   0.2221
  20.200   1.4781   0.09673   0.09382  -0.0120  0.0039  1.0000  -12.4999   0.0000   0.2222
  20.300   1.4751   0.09845   0.09557  -0.0125  0.0039  1.0000  -12.5417   0.0000   0.2223
  20.400   1.4716   0.10024   0.09739  -0.0131  0.0039  1.0000  -12.5774   0.0000   0.2225
  20.500   1.4674   0.10216   0.09935  -0.0138  0.0039  1.0000  -12.6032   0.0000   0.2227
  20.600   1.4504   0.10637   0.10362  -0.0157  0.0039  1.0000  -12.4623   0.0000   0.2238
  20.700   1.4455   0.10843   0.10571  -0.0164  0.0039  1.0000  -12.4768   0.0000   0.2241
  20.800   1.4418   0.11024   0.10754  -0.0171  0.0039  1.0000  -12.5062   0.0000   0.2243
  20.900   1.4383   0.11201   0.10935  -0.0177  0.0039  1.0000  -12.5376   0.0000   0.2246
  21.000   1.4348   0.11382   0.11119  -0.0184  0.0039  1.0000  -12.5679   0.0000   0.2248
  21.100   1.4310   0.11571   0.11311  -0.0191  0.0039  1.0000  -12.5937   0.0000   0.2250
  21.400   1.4047   0.12421   0.12174  -0.0228  0.0039  1.0000  -12.4596   0.0000   0.2272
  21.500   1.4009   0.12618   0.12373  -0.0236  0.0039  1.0000  -12.4795   0.0000   0.2276
  21.600   1.3955   0.12840   0.12600  -0.0246  0.0039  1.0000  -12.4732   0.0000   0.2280
  21.700   1.3909   0.13052   0.12815  -0.0255  0.0039  1.0000  -12.4789   0.0000   0.2285
  21.800   1.3854   0.13283   0.13049  -0.0265  0.0038  1.0000  -12.4708   0.0000   0.2291
  21.900   1.3715   0.13677   0.13449  -0.0285  0.0039  1.0000  -12.3422   0.0000   0.2305
  22.000   1.3662   0.13906   0.13681  -0.0296  0.0039  1.0000  -12.3319   0.0000   0.2311
  22.100   1.3617   0.14121   0.13899  -0.0306  0.0038  1.0000  -12.3326   0.0000   0.2316
  22.200   1.3571   0.14339   0.14120  -0.0316  0.0038  1.0000  -12.3301   0.0000   0.2322
  22.300   1.3517   0.14573   0.14358  -0.0328  0.0038  1.0000  -12.3148   0.0000   0.2329
  22.400   1.3394   0.14948   0.14738  -0.0347  0.0038  1.0000  -12.1932   0.0000   0.2344
  22.500   1.3339   0.15189   0.14982  -0.0360  0.0038  1.0000  -12.1700   0.0000   0.2352
  22.600   1.3285   0.15420   0.15217  -0.0371  0.0038  1.0000  -12.1486   0.0000   0.2359
  22.700   1.3228   0.15657   0.15457  -0.0384  0.0038  1.0000  -12.1209   0.0000   0.2367
  22.800   1.3119   0.16005   0.15810  -0.0402  0.0039  1.0000  -12.0089   0.0000   0.2382
  22.900   1.3052   0.16273   0.16081  -0.0416  0.0039  1.0000  -11.9587   0.0000   0.2392
  23.000   1.2981   0.16552   0.16364  -0.0432  0.0039  1.0000  -11.8995   0.0000   0.2403
  23.100   1.2893   0.16876   0.16692  -0.0450  0.0039  1.0000  -11.8123   0.0000   0.2418
  23.200   1.2832   0.17142   0.16962  -0.0464  0.0039  1.0000  -11.7623   0.0000   0.2429
  23.300   1.2769   0.17414   0.17237  -0.0480  0.0039  1.0000  -11.7072   0.0000   0.2440
  23.400   1.2643   0.17832   0.17661  -0.0504  0.0039  1.0000  -11.5363   0.0000   0.2462
  23.500   1.2578   0.18118   0.17950  -0.0520  0.0039  1.0000  -11.4681   0.0000   0.2475
  23.600   1.2518   0.18396   0.18231  -0.0536  0.0039  1.0000  -11.4047   0.0000   0.2487
  23.700   1.2438   0.18722   0.18561  -0.0555  0.0039  1.0000  -11.3022   0.0000   0.2504
  23.800   1.2312   0.19168   0.19013  -0.0581  0.0039  1.0000  -11.1046   0.0000   0.2529
  23.900   1.2241   0.19485   0.19334  -0.0600  0.0039  1.0000  -11.0057   0.0000   0.2545
  24.000   1.2104   0.19976   0.19830  -0.0629  0.0039  1.0000  -10.7697   0.0000   0.2574
  24.100   1.2021   0.20338   0.20197  -0.0651  0.0039  1.0000  -10.6315   0.0000   0.2594
  24.200   1.1942   0.20694   0.20558  -0.0672  0.0039  1.0000  -10.4953   0.0000   0.2614
  24.300   1.1786   0.21273   0.21143  -0.0706  0.0039  1.0000  -10.1807   0.0000   0.2652
  24.400   1.1675   0.21740   0.21615  -0.0734  0.0039  1.0000  -9.9489   0.0000   0.2681
  24.500   1.1469   0.22503   0.22387  -0.0778  0.0039  1.0000  -9.4715   0.0000   0.2733


