xflr5 v6.48

 Calculated polar for: BOEING-VERTOL VR-7 AIRFOIL

 1 1 Reynolds number fixed          Mach number fixed         

 xtrf =   1.000 (top)        1.000 (bottom)
 Mach =   0.000     Re =     7.500 e 6     Ncrit =   9.000

  alpha     CL        CD       CDp       Cm    Top Xtr Bot Xtr   Cpmin    Chinge    XCp    
 ------- -------- --------- --------- -------- ------- ------- -------- --------- ---------
 -15.200  -0.8423   0.07556   0.07475  -0.0344  1.0000  0.0050  -13.6500   0.0000   0.1900
 -15.100  -0.8560   0.07110   0.07028  -0.0367  1.0000  0.0050  -13.9175   0.0000   0.1882
 -15.000  -0.8628   0.06779   0.06695  -0.0384  1.0000  0.0050  -14.0408   0.0000   0.1867
 -14.900  -0.8664   0.06489   0.06404  -0.0400  1.0000  0.0050  -14.1023   0.0000   0.1852
 -14.500  -1.1556   0.02218   0.01982  -0.0556  0.9990  0.0050  -19.0631   0.0000   0.1855
 -14.400  -1.1606   0.02062   0.01811  -0.0542  0.9987  0.0050  -19.0960   0.0000   0.1870
 -14.300  -1.1587   0.01958   0.01697  -0.0535  0.9984  0.0050  -19.0120   0.0000   0.1877
 -14.200  -1.1541   0.01877   0.01608  -0.0531  0.9979  0.0050  -18.8822   0.0000   0.1880
 -14.100  -1.1482   0.01810   0.01533  -0.0528  0.9973  0.0050  -18.7284   0.0000   0.1881
 -14.000  -1.1416   0.01752   0.01469  -0.0526  0.9967  0.0050  -18.5618   0.0000   0.1883
 -13.900  -1.1346   0.01700   0.01412  -0.0523  0.9958  0.0050  -18.3863   0.0000   0.1884
 -13.800  -1.1272   0.01654   0.01361  -0.0521  0.9948  0.0050  -18.2045   0.0000   0.1884
 -13.700  -1.1195   0.01611   0.01314  -0.0518  0.9936  0.0050  -18.0178   0.0000   0.1885
 -13.600  -1.1115   0.01572   0.01270  -0.0516  0.9921  0.0050  -17.8264   0.0000   0.1885
 -13.500  -1.1028   0.01534   0.01229  -0.0515  0.9903  0.0050  -17.6273   0.0000   0.1883
 -13.400  -1.0932   0.01498   0.01189  -0.0516  0.9876  0.0050  -17.4172   0.0000   0.1880
 -13.300  -1.0778   0.01456   0.01142  -0.0530  0.9765  0.0050  -17.1483   0.0000   0.1862
 -13.200  -1.0666   0.01425   0.01104  -0.0534  0.9517  0.0050  -16.9220   0.0000   0.1854
 -13.100  -1.0610   0.01407   0.01076  -0.0525  0.9274  0.0050  -16.7537   0.0000   0.1862
 -13.000  -1.0550   0.01389   0.01049  -0.0516  0.9049  0.0050  -16.5814   0.0000   0.1868
 -12.900  -1.0485   0.01371   0.01022  -0.0509  0.8808  0.0050  -16.4045   0.0000   0.1874
 -12.800  -1.0414   0.01352   0.00996  -0.0503  0.8630  0.0050  -16.2216   0.0000   0.1878
 -12.700  -1.0344   0.01330   0.00966  -0.0497  0.8418  0.0051  -16.0440   0.0000   0.1882
 -12.600  -1.0268   0.01314   0.00943  -0.0492  0.8237  0.0051  -15.8563   0.0000   0.1884
 -12.500  -1.0188   0.01297   0.00919  -0.0488  0.8064  0.0051  -15.6656   0.0000   0.1886
 -12.400  -1.0107   0.01280   0.00897  -0.0484  0.7940  0.0051  -15.4736   0.0000   0.1888
 -12.300  -1.0025   0.01265   0.00876  -0.0480  0.7753  0.0051  -15.2820   0.0000   0.1889
 -12.200  -0.9939   0.01247   0.00854  -0.0476  0.7669  0.0051  -15.0865   0.0000   0.1890
 -12.100  -0.9851   0.01230   0.00834  -0.0473  0.7612  0.0051  -14.8909   0.0000   0.1890
 -12.000  -0.9764   0.01214   0.00814  -0.0470  0.7545  0.0051  -14.6957   0.0000   0.1890
 -11.900  -0.9676   0.01199   0.00795  -0.0467  0.7467  0.0051  -14.5009   0.0000   0.1890
 -11.800  -0.9586   0.01184   0.00776  -0.0464  0.7375  0.0051  -14.3055   0.0000   0.1890
 -11.700  -0.9495   0.01169   0.00758  -0.0462  0.7299  0.0051  -14.1094   0.0000   0.1889
 -11.600  -0.9402   0.01153   0.00740  -0.0460  0.7282  0.0051  -13.9129   0.0000   0.1888
 -11.500  -0.9309   0.01138   0.00723  -0.0458  0.7258  0.0051  -13.7169   0.0000   0.1887
 -11.400  -0.9216   0.01124   0.00706  -0.0455  0.7215  0.0051  -13.5219   0.0000   0.1885
 -11.300  -0.9123   0.01111   0.00690  -0.0453  0.7148  0.0051  -13.3282   0.0000   0.1884
 -11.200  -0.9030   0.01100   0.00674  -0.0451  0.7059  0.0051  -13.1356   0.0000   0.1883
 -11.000  -0.8840   0.01075   0.00644  -0.0447  0.6889  0.0051  -12.7492   0.0000   0.1879
 -10.900  -0.8743   0.01063   0.00630  -0.0445  0.6862  0.0051  -12.5561   0.0000   0.1876
 -10.800  -0.8646   0.01051   0.00616  -0.0443  0.6827  0.0052  -12.3635   0.0000   0.1874
 -10.700  -0.8547   0.01041   0.00603  -0.0442  0.6785  0.0051  -12.1691   0.0000   0.1871
 -10.600  -0.8450   0.01031   0.00589  -0.0440  0.6740  0.0052  -11.9795   0.0000   0.1868
 -10.500  -0.8353   0.01020   0.00576  -0.0439  0.6694  0.0052  -11.7906   0.0000   0.1865
 -10.400  -0.8254   0.01009   0.00563  -0.0437  0.6648  0.0052  -11.6021   0.0000   0.1861
 -10.300  -0.8155   0.00998   0.00550  -0.0436  0.6603  0.0052  -11.4143   0.0000   0.1858
 -10.200  -0.8055   0.00987   0.00538  -0.0435  0.6561  0.0052  -11.2271   0.0000   0.1854
 -10.100  -0.7955   0.00977   0.00526  -0.0434  0.6527  0.0052  -11.0407   0.0000   0.1849
 -10.000  -0.7854   0.00966   0.00514  -0.0432  0.6500  0.0052  -10.8551   0.0000   0.1845
  -9.900  -0.7753   0.00955   0.00502  -0.0431  0.6497  0.0052  -10.6704   0.0000   0.1840
  -9.800  -0.7651   0.00945   0.00491  -0.0431  0.6492  0.0052  -10.4866   0.0000   0.1835
  -9.700  -0.7549   0.00935   0.00480  -0.0430  0.6487  0.0052  -10.3040   0.0000   0.1829
  -9.600  -0.7446   0.00925   0.00469  -0.0429  0.6481  0.0052  -10.1224   0.0000   0.1823
  -9.500  -0.7344   0.00915   0.00459  -0.0428  0.6474  0.0052  -9.9419   0.0000   0.1818
  -9.400  -0.7241   0.00906   0.00448  -0.0427  0.6466  0.0052  -9.7626   0.0000   0.1811
  -9.300  -0.7138   0.00897   0.00438  -0.0426  0.6455  0.0052  -9.5846   0.0000   0.1805
  -9.200  -0.7035   0.00888   0.00428  -0.0426  0.6443  0.0053  -9.4077   0.0000   0.1798
  -9.100  -0.6931   0.00879   0.00419  -0.0425  0.6428  0.0053  -9.2321   0.0000   0.1791
  -9.000  -0.6828   0.00871   0.00409  -0.0424  0.6411  0.0053  -9.0579   0.0000   0.1783
  -8.900  -0.6724   0.00862   0.00400  -0.0423  0.6392  0.0053  -8.8850   0.0000   0.1776
  -8.800  -0.6620   0.00854   0.00390  -0.0423  0.6372  0.0053  -8.7136   0.0000   0.1768
  -8.700  -0.6516   0.00846   0.00381  -0.0422  0.6352  0.0053  -8.5441   0.0000   0.1759
  -8.600  -0.6413   0.00838   0.00370  -0.0421  0.6331  0.0053  -8.3779   0.0000   0.1751
  -8.500  -0.6308   0.00831   0.00361  -0.0421  0.6310  0.0054  -8.2093   0.0000   0.1741
  -8.400  -0.6203   0.00824   0.00353  -0.0420  0.6286  0.0054  -8.0419   0.0000   0.1732
  -8.300  -0.6097   0.00817   0.00345  -0.0420  0.6262  0.0054  -7.8757   0.0000   0.1721
  -8.200  -0.5992   0.00810   0.00338  -0.0419  0.6237  0.0054  -7.7108   0.0000   0.1710
  -8.100  -0.5886   0.00803   0.00330  -0.0419  0.6210  0.0054  -7.5471   0.0000   0.1699
  -8.000  -0.5779   0.00796   0.00323  -0.0419  0.6183  0.0054  -7.3847   0.0000   0.1687
  -7.900  -0.5673   0.00790   0.00315  -0.0419  0.6158  0.0054  -7.2236   0.0000   0.1674
  -7.800  -0.5566   0.00783   0.00308  -0.0418  0.6136  0.0054  -7.0639   0.0000   0.1661
  -7.700  -0.5459   0.00777   0.00301  -0.0418  0.6116  0.0054  -6.9054   0.0000   0.1647
  -7.600  -0.5352   0.00771   0.00295  -0.0418  0.6100  0.0055  -6.7483   0.0000   0.1633
  -7.500  -0.5244   0.00764   0.00288  -0.0418  0.6099  0.0055  -6.5924   0.0000   0.1617
  -7.400  -0.5137   0.00758   0.00282  -0.0418  0.6098  0.0055  -6.4379   0.0000   0.1601
  -7.300  -0.5029   0.00751   0.00275  -0.0418  0.6096  0.0055  -6.2848   0.0000   0.1584
  -7.200  -0.4921   0.00745   0.00269  -0.0418  0.6095  0.0055  -6.1331   0.0000   0.1566
  -7.100  -0.4812   0.00739   0.00263  -0.0418  0.6093  0.0055  -5.9828   0.0000   0.1548
  -7.000  -0.4704   0.00733   0.00257  -0.0418  0.6091  0.0055  -5.8339   0.0000   0.1528
  -6.900  -0.4596   0.00727   0.00251  -0.0418  0.6088  0.0055  -5.6865   0.0000   0.1507
  -6.800  -0.4487   0.00722   0.00246  -0.0418  0.6086  0.0056  -5.5549   0.0000   0.1485
  -6.700  -0.4378   0.00716   0.00240  -0.0418  0.6083  0.0056  -5.4541   0.0000   0.1462
  -6.600  -0.4269   0.00711   0.00234  -0.0418  0.6079  0.0056  -5.3539   0.0000   0.1437
  -6.500  -0.4160   0.00705   0.00229  -0.0418  0.6075  0.0056  -5.2544   0.0000   0.1412
  -6.400  -0.4051   0.00700   0.00224  -0.0419  0.6069  0.0056  -5.1557   0.0000   0.1384
  -6.300  -0.3942   0.00695   0.00219  -0.0419  0.6062  0.0056  -5.0576   0.0000   0.1355
  -6.200  -0.3832   0.00690   0.00214  -0.0419  0.6053  0.0058  -4.9598   0.0000   0.1324
  -6.100  -0.3723   0.00686   0.00209  -0.0419  0.6039  0.0059  -4.8628   0.0000   0.1292
  -6.000  -0.3614   0.00681   0.00204  -0.0419  0.6019  0.0060  -4.7670   0.0000   0.1257
  -5.900  -0.3505   0.00678   0.00199  -0.0419  0.5990  0.0059  -4.6735   0.0000   0.1221
  -5.800  -0.3397   0.00675   0.00194  -0.0419  0.5952  0.0061  -4.5787   0.0000   0.1182
  -5.700  -0.3288   0.00672   0.00190  -0.0419  0.5911  0.0063  -4.4847   0.0000   0.1141
  -5.600  -0.3180   0.00668   0.00186  -0.0419  0.5866  0.0066  -4.3912   0.0000   0.1097
  -5.500  -0.3071   0.00665   0.00181  -0.0419  0.5818  0.0068  -4.2979   0.0000   0.1050
  -5.400  -0.2962   0.00661   0.00177  -0.0420  0.5771  0.0072  -4.2048   0.0000   0.0999
  -5.300  -0.2853   0.00656   0.00173  -0.0420  0.5732  0.0075  -4.1116   0.0000   0.0943
  -5.200  -0.2743   0.00652   0.00169  -0.0420  0.5703  0.0079  -4.0180   0.0000   0.0882
  -5.100  -0.2633   0.00647   0.00166  -0.0420  0.5698  0.0084  -3.9235   0.0000   0.0816
  -5.000  -0.2523   0.00643   0.00163  -0.0421  0.5694  0.0089  -3.8273   0.0000   0.0744
  -4.900  -0.2412   0.00639   0.00161  -0.0421  0.5690  0.0093  -3.7282   0.0000   0.0663
  -4.800  -0.2299   0.00638   0.00163  -0.0422  0.5685  0.0097  -3.6189   0.0000   0.0572
  -2.000   0.0777   0.00647   0.00132  -0.0433  0.3970  0.0140  -1.3681   0.0000   0.8142
  -1.900   0.0882   0.00647   0.00126  -0.0432  0.3860  0.0133  -1.3200   0.0000   0.7458
  -0.600   0.2294   0.00653   0.00092  -0.0430  0.2870  0.0106  -0.6885   0.0000   0.4367
  -0.500   0.2396   0.00662   0.00093  -0.0428  0.2730  0.0106  -0.6521   0.0000   0.4280
  -0.400   0.2500   0.00667   0.00091  -0.0427  0.2538  0.0142  -0.6602   0.0000   0.4199
  -0.300   0.2602   0.00677   0.00096  -0.0426  0.2395  0.0150  -0.6634   0.0000   0.4126
  -0.200   0.2708   0.00683   0.00097  -0.0426  0.2245  0.0156  -0.6727   0.0000   0.4059
  -0.100   0.2803   0.00700   0.00104  -0.0424  0.1967  0.0161  -0.6772   0.0000   0.3997
   0.000   0.2907   0.00708   0.00107  -0.0423  0.1829  0.0166  -0.6878   0.0000   0.3939
   0.200   0.3124   0.00714   0.00110  -0.0423  0.1713  0.0174  -0.7062   0.0000   0.3835
   0.300   0.3231   0.00718   0.00112  -0.0422  0.1624  0.0177  -0.7151   0.0000   0.3788
   0.400   0.3341   0.00720   0.00113  -0.0423  0.1589  0.0181  -0.7239   0.0000   0.3745
   0.600   0.3553   0.00731   0.00118  -0.0422  0.1384  0.0187  -0.7441   0.0000   0.3664
   0.700   0.3661   0.00735   0.00120  -0.0422  0.1332  0.0190  -0.7550   0.0000   0.3628
   0.800   0.3769   0.00738   0.00122  -0.0422  0.1279  0.0193  -0.7657   0.0000   0.3594
   0.900   0.3878   0.00741   0.00123  -0.0422  0.1223  0.0196  -0.7763   0.0000   0.3561
   1.000   0.3989   0.00742   0.00124  -0.0422  0.1199  0.0198  -0.7868   0.0000   0.3531
   1.100   0.4100   0.00743   0.00125  -0.0423  0.1188  0.0201  -0.7974   0.0000   0.3502
   1.300   0.4289   0.00777   0.00141  -0.0418  0.0641  0.0205  -0.8172   0.0000   0.3444
   1.400   0.4395   0.00781   0.00144  -0.0417  0.0579  0.0248  -0.8275   0.0000   0.3418
   1.600   0.4611   0.00786   0.00148  -0.0417  0.0503  0.0366  -0.8484   0.0000   0.3371
   1.700   0.4720   0.00786   0.00150  -0.0417  0.0495  0.0443  -0.8590   0.0000   0.3349
   1.800   0.4822   0.00789   0.00154  -0.0416  0.0394  0.0686  -0.8690   0.0000   0.3327
   2.000   0.5032   0.00802   0.00162  -0.0414  0.0204  0.0704  -0.8896   0.0000   0.3287
   2.100   0.5142   0.00804   0.00165  -0.0414  0.0201  0.0728  -0.9002   0.0000   0.3268
   2.200   0.5265   0.00762   0.00156  -0.0418  0.0644  0.1761  -0.9119   0.0000   0.3255
   2.300   0.5412   0.00721   0.00141  -0.0424  0.1177  0.2000  -0.9243   0.0000   0.3245
   2.500   0.5597   0.00748   0.00158  -0.0419  0.0763  0.2311  -0.9460   0.0000   0.3207
   2.700   0.5794   0.00749   0.00167  -0.0416  0.0592  0.3049  -0.9716   0.0000   0.3175
   2.900   0.5989   0.00728   0.00173  -0.0413  0.0552  0.4303  -1.0013   0.0000   0.3144
   3.000   0.6092   0.00726   0.00177  -0.0412  0.0527  0.4588  -1.0169   0.0000   0.3130
   3.100   0.6195   0.00722   0.00179  -0.0411  0.0504  0.4883  -1.0326   0.0000   0.3117
   3.200   0.6299   0.00719   0.00182  -0.0411  0.0499  0.5171  -1.0484   0.0000   0.3104
   3.300   0.6406   0.00720   0.00185  -0.0410  0.0492  0.5282  -1.0645   0.0000   0.3092
   3.500   0.6608   0.00725   0.00196  -0.0408  0.0385  0.5697  -1.0961   0.0000   0.3066
   3.600   0.6705   0.00725   0.00201  -0.0406  0.0340  0.6084  -1.1116   0.0000   0.3054
   3.700   0.6806   0.00722   0.00206  -0.0404  0.0304  0.6423  -1.1274   0.0000   0.3042
   3.800   0.6906   0.00717   0.00209  -0.0403  0.0302  0.6808  -1.1431   0.0000   0.3030
   3.900   0.7004   0.00727   0.00217  -0.0401  0.0219  0.6898  -1.1588   0.0000   0.3018
   4.000   0.7108   0.00728   0.00222  -0.0400  0.0202  0.7098  -1.1750   0.0000   0.3007
   4.100   0.7211   0.00728   0.00225  -0.0399  0.0199  0.7264  -1.1911   0.0000   0.2997
   4.200   0.7313   0.00727   0.00230  -0.0398  0.0195  0.7538  -1.2072   0.0000   0.2986
   4.300   0.7416   0.00728   0.00234  -0.0397  0.0191  0.7688  -1.2548   0.0000   0.2976
   4.400   0.7519   0.00730   0.00238  -0.0396  0.0187  0.7881  -1.3040   0.0000   0.2967
   4.500   0.7621   0.00730   0.00243  -0.0394  0.0182  0.8045  -1.3532   0.0000   0.2957
   4.600   0.7722   0.00732   0.00248  -0.0393  0.0178  0.8231  -1.4029   0.0000   0.2947
   4.700   0.7822   0.00732   0.00252  -0.0391  0.0174  0.8421  -1.4527   0.0000   0.2937
   4.800   0.7921   0.00734   0.00257  -0.0389  0.0169  0.8618  -1.5029   0.0000   0.2927
   4.900   0.8021   0.00736   0.00262  -0.0387  0.0164  0.8779  -1.5537   0.0000   0.2918
   5.000   0.8116   0.00736   0.00267  -0.0384  0.0158  0.8988  -1.6039   0.0000   0.2907
   5.100   0.8214   0.00738   0.00272  -0.0382  0.0152  0.9147  -1.6549   0.0000   0.2898
   5.200   0.8306   0.00739   0.00276  -0.0378  0.0143  0.9345  -1.7048   0.0000   0.2887
   5.400   0.8521   0.00745   0.00289  -0.0377  0.0105  0.9745  -1.7863   0.0000   0.2871
   5.500   0.8680   0.00752   0.00296  -0.0388  0.0105  0.9827  -1.8507   0.0000   0.2876
   5.600   0.8833   0.00760   0.00303  -0.0398  0.0105  0.9871  -1.9134   0.0000   0.2878
   5.700   0.8971   0.00767   0.00310  -0.0405  0.0105  0.9894  -1.9723   0.0000   0.2877
   5.800   0.9099   0.00774   0.00317  -0.0410  0.0105  0.9913  -2.0287   0.0000   0.2875
   5.900   0.9223   0.00781   0.00324  -0.0413  0.0105  0.9927  -2.0833   0.0000   0.2872
   6.000   0.9345   0.00789   0.00332  -0.0416  0.0105  0.9938  -2.1350   0.0000   0.2868
   6.100   0.9467   0.00792   0.00336  -0.0421  0.0100  0.9947  -2.2841   0.0000   0.2866
   6.200   0.9579   0.00807   0.00348  -0.0423  0.0077  0.9955  -2.3534   0.0000   0.2861
   6.300   0.9694   0.00818   0.00357  -0.0425  0.0059  0.9961  -2.4190   0.0000   0.2857
   6.400   0.9812   0.00825   0.00364  -0.0427  0.0055  0.9966  -2.4847   0.0000   0.2853
   6.500   0.9930   0.00833   0.00371  -0.0430  0.0053  0.9970  -2.5505   0.0000   0.2849
   6.600   1.0047   0.00840   0.00377  -0.0432  0.0052  0.9974  -2.6166   0.0000   0.2845
   6.700   1.0165   0.00848   0.00384  -0.0434  0.0052  0.9977  -2.6832   0.0000   0.2841
   6.800   1.0289   0.00855   0.00391  -0.0438  0.0051  0.9980  -2.7523   0.0000   0.2838
   6.900   1.0422   0.00864   0.00398  -0.0444  0.0051  0.9984  -2.8245   0.0000   0.2837
   7.000   1.0557   0.00872   0.00405  -0.0451  0.0050  0.9988  -2.8983   0.0000   0.2836
   7.100   1.0690   0.00880   0.00413  -0.0456  0.0050  0.9991  -2.9716   0.0000   0.2835
   7.200   1.0815   0.00888   0.00420  -0.0460  0.0050  0.9992  -3.0433   0.0000   0.2833
   7.300   1.0932   0.00896   0.00427  -0.0463  0.0050  0.9994  -3.1133   0.0000   0.2829
   7.400   1.1048   0.00904   0.00435  -0.0465  0.0049  0.9995  -3.1836   0.0000   0.2825
   7.500   1.1168   0.00908   0.00439  -0.0468  0.0053  0.9996  -3.2484   0.0000   0.2822
   7.600   1.1285   0.00916   0.00445  -0.0470  0.0054  0.9996  -3.3188   0.0000   0.2818
   7.700   1.1401   0.00924   0.00453  -0.0472  0.0053  0.9997  -3.3904   0.0000   0.2814
   7.800   1.1516   0.00932   0.00461  -0.0474  0.0053  0.9998  -3.4625   0.0000   0.2810
   7.900   1.1631   0.00941   0.00468  -0.0476  0.0053  0.9999  -3.5353   0.0000   0.2807
   8.000   1.1745   0.00949   0.00476  -0.0478  0.0052  1.0000  -3.6084   0.0000   0.2803
   8.100   1.1853   0.00958   0.00485  -0.0478  0.0052  1.0000  -3.6800   0.0000   0.2798
   8.200   1.1944   0.00966   0.00493  -0.0475  0.0052  1.0000  -3.7468   0.0000   0.2791
   8.300   1.2036   0.00975   0.00501  -0.0472  0.0051  1.0000  -3.8142   0.0000   0.2783
   8.400   1.2128   0.00983   0.00509  -0.0469  0.0051  1.0000  -3.8822   0.0000   0.2777
   8.500   1.2220   0.00992   0.00517  -0.0466  0.0051  1.0000  -3.9506   0.0000   0.2770
   8.600   1.2312   0.01000   0.00526  -0.0463  0.0050  1.0000  -4.0194   0.0000   0.2763
   8.700   1.2404   0.01009   0.00534  -0.0460  0.0050  1.0000  -4.0887   0.0000   0.2756
   8.800   1.2495   0.01018   0.00543  -0.0457  0.0050  1.0000  -4.1584   0.0000   0.2750
   8.900   1.2587   0.01027   0.00552  -0.0454  0.0050  1.0000  -4.2284   0.0000   0.2743
   9.000   1.2678   0.01036   0.00561  -0.0451  0.0050  1.0000  -4.2988   0.0000   0.2736
   9.100   1.2769   0.01046   0.00570  -0.0448  0.0049  1.0000  -4.3695   0.0000   0.2730
   9.200   1.2860   0.01055   0.00579  -0.0444  0.0049  1.0000  -4.4405   0.0000   0.2723
   9.300   1.2950   0.01065   0.00588  -0.0441  0.0049  1.0000  -4.5118   0.0000   0.2717
   9.400   1.3039   0.01074   0.00598  -0.0438  0.0049  1.0000  -4.5834   0.0000   0.2711
   9.500   1.3129   0.01084   0.00608  -0.0435  0.0049  1.0000  -4.6552   0.0000   0.2704
   9.600   1.3218   0.01094   0.00618  -0.0431  0.0048  1.0000  -4.7273   0.0000   0.2698
   9.700   1.3306   0.01104   0.00628  -0.0428  0.0048  1.0000  -4.7997   0.0000   0.2691
   9.800   1.3393   0.01114   0.00638  -0.0424  0.0048  1.0000  -4.8723   0.0000   0.2685
   9.900   1.3481   0.01125   0.00648  -0.0420  0.0048  1.0000  -4.9450   0.0000   0.2679
  10.000   1.3560   0.01139   0.00665  -0.0415  0.0046  1.0000  -5.0214   0.0000   0.2671
  10.100   1.3644   0.01151   0.00677  -0.0411  0.0046  1.0000  -5.0954   0.0000   0.2665
  10.200   1.3728   0.01162   0.00689  -0.0407  0.0045  1.0000  -5.1691   0.0000   0.2658
  10.300   1.3811   0.01174   0.00700  -0.0403  0.0045  1.0000  -5.2428   0.0000   0.2652
  10.400   1.3894   0.01186   0.00712  -0.0398  0.0045  1.0000  -5.3165   0.0000   0.2645
  10.500   1.3975   0.01198   0.00724  -0.0394  0.0045  1.0000  -5.3902   0.0000   0.2639
  10.600   1.4056   0.01210   0.00737  -0.0389  0.0045  1.0000  -5.4639   0.0000   0.2632
  10.700   1.4136   0.01222   0.00749  -0.0384  0.0044  1.0000  -5.5376   0.0000   0.2625
  10.800   1.4215   0.01234   0.00762  -0.0379  0.0044  1.0000  -5.6113   0.0000   0.2619
  10.900   1.4293   0.01246   0.00774  -0.0374  0.0044  1.0000  -5.6849   0.0000   0.2612
  11.000   1.4370   0.01259   0.00787  -0.0369  0.0044  1.0000  -5.7584   0.0000   0.2605
  11.100   1.4446   0.01272   0.00801  -0.0363  0.0044  1.0000  -5.8318   0.0000   0.2598
  11.200   1.4520   0.01285   0.00814  -0.0358  0.0044  1.0000  -5.9050   0.0000   0.2591
  11.300   1.4594   0.01298   0.00828  -0.0352  0.0044  1.0000  -5.9784   0.0000   0.2585
  11.400   1.4667   0.01313   0.00843  -0.0346  0.0043  1.0000  -6.0517   0.0000   0.2578
  11.500   1.4738   0.01327   0.00858  -0.0340  0.0043  1.0000  -6.1246   0.0000   0.2571
  11.600   1.4792   0.01341   0.00872  -0.0330  0.0043  1.0000  -6.1910   0.0000   0.2562
  11.700   1.4826   0.01354   0.00886  -0.0317  0.0043  1.0000  -6.2496   0.0000   0.2550
  11.800   1.4864   0.01367   0.00900  -0.0304  0.0043  1.0000  -6.3098   0.0000   0.2539
  11.900   1.4910   0.01380   0.00914  -0.0293  0.0043  1.0000  -6.3733   0.0000   0.2530
  12.000   1.4968   0.01392   0.00926  -0.0285  0.0043  1.0000  -6.4395   0.0000   0.2521
  12.100   1.5023   0.01406   0.00942  -0.0276  0.0043  1.0000  -6.5067   0.0000   0.2513
  12.200   1.5077   0.01422   0.00958  -0.0267  0.0043  1.0000  -6.5742   0.0000   0.2505
  12.300   1.5124   0.01439   0.00975  -0.0257  0.0043  1.0000  -6.6392   0.0000   0.2496
  12.400   1.5173   0.01456   0.00994  -0.0248  0.0043  1.0000  -6.7347   0.0000   0.2488
  12.500   1.5224   0.01474   0.01013  -0.0239  0.0043  1.0000  -6.8516   0.0000   0.2480
  12.600   1.5278   0.01493   0.01032  -0.0231  0.0043  1.0000  -6.9709   0.0000   0.2472
  12.700   1.5328   0.01512   0.01052  -0.0223  0.0043  1.0000  -7.0887   0.0000   0.2464
  12.800   1.5376   0.01532   0.01074  -0.0215  0.0043  1.0000  -7.2049   0.0000   0.2457
  12.900   1.5426   0.01553   0.01095  -0.0207  0.0042  1.0000  -7.3237   0.0000   0.2449
  13.000   1.5475   0.01575   0.01118  -0.0199  0.0042  1.0000  -7.4424   0.0000   0.2442
  13.100   1.5520   0.01599   0.01143  -0.0191  0.0042  1.0000  -7.5586   0.0000   0.2434
  13.200   1.5568   0.01623   0.01168  -0.0184  0.0042  1.0000  -7.6777   0.0000   0.2427
  13.300   1.5618   0.01647   0.01194  -0.0177  0.0042  1.0000  -7.7989   0.0000   0.2420
  13.400   1.5659   0.01675   0.01223  -0.0169  0.0042  1.0000  -7.9146   0.0000   0.2413
  13.500   1.5702   0.01704   0.01253  -0.0162  0.0042  1.0000  -8.0314   0.0000   0.2406
  13.600   1.5748   0.01732   0.01282  -0.0155  0.0042  1.0000  -8.1521   0.0000   0.2400
  13.700   1.5795   0.01761   0.01312  -0.0149  0.0042  1.0000  -8.2741   0.0000   0.2394
  13.800   1.5830   0.01795   0.01347  -0.0141  0.0042  1.0000  -8.3861   0.0000   0.2387
  13.900   1.5867   0.01828   0.01382  -0.0134  0.0042  1.0000  -8.5010   0.0000   0.2380
  14.000   1.5909   0.01861   0.01417  -0.0128  0.0041  1.0000  -8.6212   0.0000   0.2374
  14.100   1.5944   0.01901   0.01458  -0.0121  0.0041  1.0000  -8.7323   0.0000   0.2367
  14.200   1.5972   0.01944   0.01503  -0.0115  0.0041  1.0000  -8.8401   0.0000   0.2361
  14.300   1.6005   0.01986   0.01547  -0.0109  0.0041  1.0000  -8.9533   0.0000   0.2355
  14.400   1.6044   0.02026   0.01588  -0.0103  0.0041  1.0000  -9.0722   0.0000   0.2349
  14.500   1.6083   0.02067   0.01631  -0.0098  0.0041  1.0000  -9.1917   0.0000   0.2344
  14.600   1.6105   0.02121   0.01686  -0.0092  0.0041  1.0000  -9.2962   0.0000   0.2338
  14.700   1.6136   0.02169   0.01736  -0.0087  0.0041  1.0000  -9.4100   0.0000   0.2333
  14.800   1.6173   0.02214   0.01783  -0.0083  0.0040  1.0000  -9.5291   0.0000   0.2328
  14.900   1.6211   0.02260   0.01830  -0.0078  0.0040  1.0000  -9.6497   0.0000   0.2323
  15.000   1.6233   0.02318   0.01890  -0.0074  0.0040  1.0000  -9.7560   0.0000   0.2318
  15.100   1.6252   0.02378   0.01951  -0.0069  0.0040  1.0000  -9.8609   0.0000   0.2313
  15.200   1.6282   0.02430   0.02006  -0.0065  0.0040  1.0000  -9.9755   0.0000   0.2308
  15.300   1.6314   0.02482   0.02059  -0.0061  0.0040  1.0000  -10.0929   0.0000   0.2303
  15.400   1.6341   0.02540   0.02119  -0.0057  0.0040  1.0000  -10.2050   0.0000   0.2298
  15.500   1.6347   0.02618   0.02199  -0.0054  0.0040  1.0000  -10.2982   0.0000   0.2294
  15.600   1.6370   0.02680   0.02263  -0.0050  0.0040  1.0000  -10.4088   0.0000   0.2289
  15.700   1.6398   0.02739   0.02324  -0.0047  0.0040  1.0000  -10.5237   0.0000   0.2285
  15.800   1.6426   0.02798   0.02385  -0.0044  0.0040  1.0000  -10.6394   0.0000   0.2280
  15.900   1.6439   0.02873   0.02461  -0.0041  0.0040  1.0000  -10.7408   0.0000   0.2276
  16.000   1.6440   0.02962   0.02552  -0.0038  0.0040  1.0000  -10.8297   0.0000   0.2272
  16.100   1.6458   0.03032   0.02625  -0.0035  0.0040  1.0000  -10.9372   0.0000   0.2268
  16.200   1.6486   0.03094   0.02688  -0.0032  0.0040  1.0000  -11.0556   0.0000   0.2264
  16.300   1.6509   0.03160   0.02756  -0.0030  0.0040  1.0000  -11.1688   0.0000   0.2260
  16.400   1.6518   0.03242   0.02840  -0.0027  0.0039  1.0000  -11.2672   0.0000   0.2256
  16.500   1.6501   0.03352   0.02952  -0.0026  0.0039  1.0000  -11.3400   0.0000   0.2253
  16.600   1.6511   0.03430   0.03033  -0.0023  0.0039  1.0000  -11.4409   0.0000   0.2249
  16.700   1.6525   0.03504   0.03109  -0.0021  0.0039  1.0000  -11.5455   0.0000   0.2245
  16.800   1.6539   0.03578   0.03185  -0.0018  0.0039  1.0000  -11.6511   0.0000   0.2241
  16.900   1.6552   0.03655   0.03263  -0.0016  0.0039  1.0000  -11.7556   0.0000   0.2237
  17.000   1.6515   0.03790   0.03402  -0.0015  0.0039  1.0000  -11.8075   0.0000   0.2234
  17.100   1.6508   0.03894   0.03507  -0.0014  0.0039  1.0000  -11.8914   0.0000   0.2231
  17.200   1.6516   0.03980   0.03596  -0.0012  0.0039  1.0000  -11.9906   0.0000   0.2227
  17.300   1.6527   0.04064   0.03682  -0.0010  0.0039  1.0000  -12.0936   0.0000   0.2224
  17.400   1.6538   0.04149   0.03769  -0.0009  0.0039  1.0000  -12.1964   0.0000   0.2221
  17.500   1.6546   0.04237   0.03858  -0.0008  0.0039  1.0000  -12.2975   0.0000   0.2217
  17.600   1.6539   0.04345   0.03969  -0.0007  0.0039  1.0000  -12.3811   0.0000   0.2214
  17.700   1.6482   0.04517   0.04145  -0.0009  0.0039  1.0000  -12.4104   0.0000   0.2213
  17.800   1.6482   0.04620   0.04250  -0.0008  0.0039  1.0000  -12.5016   0.0000   0.2210
  17.900   1.6486   0.04716   0.04349  -0.0008  0.0039  1.0000  -12.5981   0.0000   0.2207
  18.000   1.6490   0.04813   0.04447  -0.0007  0.0039  1.0000  -12.6950   0.0000   0.2204
  18.100   1.6494   0.04912   0.04548  -0.0007  0.0039  1.0000  -12.7915   0.0000   0.2202
  18.200   1.6494   0.05015   0.04654  -0.0007  0.0038  1.0000  -12.8831   0.0000   0.2199
  18.300   1.6406   0.05231   0.04874  -0.0011  0.0038  1.0000  -12.8759   0.0000   0.2199
  18.400   1.6395   0.05351   0.04997  -0.0012  0.0038  1.0000  -12.9549   0.0000   0.2197
  18.500   1.6392   0.05461   0.05109  -0.0012  0.0038  1.0000  -13.0435   0.0000   0.2194
  18.600   1.6390   0.05570   0.05220  -0.0013  0.0038  1.0000  -13.1334   0.0000   0.2192
  18.700   1.6386   0.05681   0.05333  -0.0014  0.0038  1.0000  -13.2214   0.0000   0.2190
  18.800   1.6380   0.05799   0.05453  -0.0015  0.0038  1.0000  -13.3059   0.0000   0.2188
  18.900   1.6287   0.06042   0.05701  -0.0021  0.0038  1.0000  -13.2890   0.0000   0.2189
  19.000   1.6249   0.06205   0.05868  -0.0024  0.0038  1.0000  -13.3340   0.0000   0.2188
  19.100   1.6235   0.06335   0.06000  -0.0026  0.0038  1.0000  -13.4091   0.0000   0.2186
  19.200   1.6226   0.06460   0.06127  -0.0028  0.0038  1.0000  -13.4899   0.0000   0.2185
  19.300   1.6217   0.06586   0.06256  -0.0029  0.0038  1.0000  -13.5701   0.0000   0.2183
  19.400   1.6203   0.06719   0.06391  -0.0032  0.0038  1.0000  -13.6451   0.0000   0.2182
  19.500   1.6082   0.07012   0.06689  -0.0041  0.0038  1.0000  -13.5904   0.0000   0.2185
  19.600   1.6048   0.07177   0.06857  -0.0045  0.0038  1.0000  -13.6392   0.0000   0.2185
  19.700   1.6034   0.07314   0.06996  -0.0048  0.0038  1.0000  -13.7126   0.0000   0.2184
  19.800   1.6021   0.07447   0.07132  -0.0051  0.0038  1.0000  -13.7885   0.0000   0.2183
  19.900   1.6006   0.07580   0.07267  -0.0053  0.0038  1.0000  -13.8608   0.0000   0.2182
  20.000   1.5986   0.07720   0.07410  -0.0056  0.0038  1.0000  -13.9272   0.0000   0.2181
  20.100   1.5959   0.07873   0.07565  -0.0060  0.0038  1.0000  -13.9841   0.0000   0.2181
  20.200   1.5803   0.08232   0.07930  -0.0073  0.0038  1.0000  -13.8780   0.0000   0.2187
  20.300   1.5771   0.08399   0.08100  -0.0078  0.0038  1.0000  -13.9280   0.0000   0.2187
  20.400   1.5747   0.08556   0.08259  -0.0082  0.0038  1.0000  -13.9864   0.0000   0.2187
  20.500   1.5721   0.08713   0.08419  -0.0087  0.0037  1.0000  -14.0433   0.0000   0.2187
  20.600   1.5690   0.08880   0.08589  -0.0092  0.0037  1.0000  -14.0929   0.0000   0.2188
  20.700   1.5648   0.09064   0.08776  -0.0097  0.0037  1.0000  -14.1284   0.0000   0.2189
  20.800   1.5466   0.09488   0.09206  -0.0115  0.0037  1.0000  -13.9771   0.0000   0.2198
  20.900   1.5439   0.09652   0.09372  -0.0120  0.0037  1.0000  -14.0297   0.0000   0.2199
  21.000   1.5415   0.09811   0.09534  -0.0125  0.0037  1.0000  -14.0860   0.0000   0.2200
  21.100   1.5390   0.09972   0.09697  -0.0131  0.0037  1.0000  -14.1402   0.0000   0.2200
  21.200   1.5361   0.10139   0.09867  -0.0136  0.0037  1.0000  -14.1896   0.0000   0.2201
  21.300   1.5327   0.10318   0.10049  -0.0143  0.0037  1.0000  -14.2303   0.0000   0.2203
  21.400   1.5108   0.10809   0.10547  -0.0165  0.0037  1.0000  -14.0186   0.0000   0.2216
  21.500   1.5068   0.10992   0.10732  -0.0171  0.0037  1.0000  -14.0492   0.0000   0.2218
  21.600   1.5038   0.11159   0.10902  -0.0178  0.0037  1.0000  -14.0934   0.0000   0.2220
  21.700   1.5012   0.11321   0.11066  -0.0183  0.0037  1.0000  -14.1434   0.0000   0.2221
  21.800   1.4987   0.11485   0.11233  -0.0189  0.0037  1.0000  -14.1932   0.0000   0.2222
  21.900   1.4958   0.11658   0.11408  -0.0196  0.0037  1.0000  -14.2360   0.0000   0.2224
  22.000   1.4919   0.11847   0.11600  -0.0204  0.0037  1.0000  -14.2658   0.0000   0.2227
  22.100   1.4710   0.12340   0.12100  -0.0227  0.0037  1.0000  -14.0483   0.0000   0.2243
  22.200   1.4669   0.12539   0.12301  -0.0236  0.0037  1.0000  -14.0707   0.0000   0.2246
  22.300   1.4640   0.12717   0.12482  -0.0243  0.0037  1.0000  -14.1094   0.0000   0.2249
  22.400   1.4612   0.12894   0.12661  -0.0251  0.0037  1.0000  -14.1487   0.0000   0.2251
  22.500   1.4581   0.13076   0.12846  -0.0259  0.0037  1.0000  -14.1831   0.0000   0.2254
  22.600   1.4543   0.13271   0.13044  -0.0268  0.0037  1.0000  -14.2064   0.0000   0.2258
  22.700   1.4367   0.13721   0.13499  -0.0291  0.0037  1.0000  -14.0194   0.0000   0.2274
  22.800   1.4314   0.13947   0.13729  -0.0302  0.0037  1.0000  -14.0151   0.0000   0.2280
  22.900   1.4281   0.14137   0.13921  -0.0311  0.0037  1.0000  -14.0406   0.0000   0.2284
  23.000   1.4249   0.14325   0.14112  -0.0320  0.0037  1.0000  -14.0669   0.0000   0.2288
  23.100   1.4213   0.14520   0.14309  -0.0329  0.0037  1.0000  -14.0868   0.0000   0.2292
  23.200   1.4169   0.14732   0.14524  -0.0340  0.0037  1.0000  -14.0921   0.0000   0.2298
  23.300   1.4015   0.15157   0.14954  -0.0363  0.0037  1.0000  -13.9173   0.0000   0.2315
  23.400   1.3968   0.15369   0.15169  -0.0374  0.0037  1.0000  -13.9153   0.0000   0.2321
  23.500   1.3929   0.15566   0.15369  -0.0385  0.0037  1.0000  -13.9241   0.0000   0.2326
  23.600   1.3888   0.15770   0.15575  -0.0395  0.0037  1.0000  -13.9277   0.0000   0.2332
  23.700   1.3772   0.16124   0.15934  -0.0415  0.0037  1.0000  -13.8028   0.0000   0.2347
  23.800   1.3701   0.16395   0.16208  -0.0430  0.0037  1.0000  -13.7505   0.0000   0.2357
  23.900   1.3645   0.16637   0.16454  -0.0444  0.0037  1.0000  -13.7218   0.0000   0.2365
  24.000   1.3513   0.17041   0.16863  -0.0467  0.0037  1.0000  -13.5553   0.0000   0.2384
  24.100   1.3460   0.17286   0.17111  -0.0481  0.0037  1.0000  -13.5239   0.0000   0.2393
  24.200   1.3412   0.17521   0.17348  -0.0495  0.0037  1.0000  -13.5013   0.0000   0.2402
  24.300   1.3357   0.17773   0.17603  -0.0510  0.0037  1.0000  -13.4623   0.0000   0.2412
  24.400   1.3212   0.18223   0.18059  -0.0537  0.0037  1.0000  -13.2529   0.0000   0.2435
  24.500   1.3170   0.18453   0.18291  -0.0550  0.0037  1.0000  -13.2323   0.0000   0.2444
  24.600   1.3128   0.18685   0.18526  -0.0564  0.0036  1.0000  -13.2089   0.0000   0.2454
  24.700   1.3076   0.18941   0.18785  -0.0580  0.0036  1.0000  -13.1634   0.0000   0.2465
  25.600   1.0966   0.26331   0.26255  -0.1024  0.0037  1.0000  -7.9172   0.0000   0.2987
  25.700   1.1051   0.26191   0.26113  -0.1020  0.0037  1.0000  -8.2230   0.0000   0.2970
  25.800   1.1164   0.25955   0.25875  -0.1010  0.0037  1.0000  -8.6245   0.0000   0.2944
  25.900   1.1248   0.25834   0.25752  -0.1006  0.0037  1.0000  -8.9022   0.0000   0.2928
  26.000   1.1498   0.25171   0.25083  -0.0969  0.0037  1.0000  -9.7474   0.0000   0.2863


