xflr5 v6.48

 Calculated polar for: BOEING-VERTOL VR-7 AIRFOIL

 1 1 Reynolds number fixed          Mach number fixed         

 xtrf =   1.000 (top)        1.000 (bottom)
 Mach =   0.000     Re =     1.250 e 6     Ncrit =   9.000

  alpha     CL        CD       CDp       Cm    Top Xtr Bot Xtr   Cpmin    Chinge    XCp    
 ------- -------- --------- --------- -------- ------- ------- -------- --------- ---------
 -12.900  -0.4104   0.13395   0.13234  -0.0129  1.0000  0.0061  -2.3710   0.0000   0.2042
 -12.800  -0.4085   0.13268   0.13108  -0.0134  1.0000  0.0061  -2.3482   0.0000   0.2031
 -12.700  -0.4063   0.13149   0.12989  -0.0138  1.0000  0.0062  -2.3196   0.0000   0.2019
 -12.600  -0.4037   0.13038   0.12879  -0.0142  1.0000  0.0062  -2.2834   0.0000   0.2009
 -12.500  -0.4012   0.12927   0.12768  -0.0146  1.0000  0.0063  -2.2489   0.0000   0.1998
 -12.400  -0.3987   0.12815   0.12657  -0.0150  1.0000  0.0064  -2.2162   0.0000   0.1987
 -12.300  -0.3963   0.12702   0.12544  -0.0154  1.0000  0.0064  -2.1851   0.0000   0.1976
 -12.200  -0.3940   0.12588   0.12430  -0.0158  1.0000  0.0065  -2.1557   0.0000   0.1964
 -12.100  -0.3917   0.12473   0.12316  -0.0162  1.0000  0.0066  -2.1279   0.0000   0.1952
 -12.000  -0.3895   0.12357   0.12200  -0.0166  1.0000  0.0066  -2.1018   0.0000   0.1939
 -11.900  -0.3873   0.12240   0.12083  -0.0171  1.0000  0.0067  -2.0771   0.0000   0.1926
 -11.800  -0.3851   0.12120   0.11964  -0.0175  1.0000  0.0068  -2.0540   0.0000   0.1913
 -11.700  -0.3829   0.11997   0.11842  -0.0180  1.0000  0.0069  -2.0326   0.0000   0.1899
 -11.600  -0.3808   0.11874   0.11719  -0.0185  1.0000  0.0070  -2.0130   0.0000   0.1884
 -11.500  -0.3787   0.11748   0.11594  -0.0190  1.0000  0.0071  -1.9955   0.0000   0.1869
 -11.400  -0.3767   0.11620   0.11467  -0.0195  1.0000  0.0073  -1.9800   0.0000   0.1854
 -11.300  -0.3748   0.11491   0.11337  -0.0200  1.0000  0.0074  -1.9670   0.0000   0.1839
 -11.200  -0.3729   0.11359   0.11206  -0.0205  1.0000  0.0076  -1.9566   0.0000   0.1823
 -11.100  -0.3711   0.11224   0.11072  -0.0211  1.0000  0.0078  -1.9495   0.0000   0.1807
 -11.000  -0.3694   0.11086   0.10934  -0.0216  1.0000  0.0081  -1.9463   0.0000   0.1790
 -10.900  -0.3679   0.10942   0.10791  -0.0222  1.0000  0.0083  -1.9505   0.0000   0.1773
 -10.300  -0.3528   0.01693   0.01522  -0.0096  0.6719  0.0065  -4.6359   0.0000   0.2209
 -10.200  -0.3639   0.01423   0.01248  -0.0126  0.6711  0.0065  -4.8572   0.0000   0.2132
 -10.100  -0.3698   0.01255   0.01075  -0.0150  0.6699  0.0065  -4.9588   0.0000   0.2075
 -10.000  -0.3748   0.01118   0.00935  -0.0171  0.6686  0.0065  -5.0281   0.0000   0.2024
  -9.900  -0.3798   0.00999   0.00812  -0.0190  0.6672  0.0066  -5.0870   0.0000   0.1978
  -9.800  -0.3859   0.00888   0.00696  -0.0209  0.6658  0.0066  -5.1504   0.0000   0.1937
  -9.700  -0.3932   0.00781   0.00585  -0.0228  0.6646  0.0066  -5.2250   0.0000   0.1901
  -9.600  -0.4024   0.00677   0.00475  -0.0246  0.6634  0.0066  -5.3179   0.0000   0.1870
  -9.500  -0.4138   0.00575   0.00366  -0.0262  0.6623  0.0065  -5.4334   0.0000   0.1845
  -9.400  -0.4259   0.00483   0.00267  -0.0277  0.6612  0.0065  -5.5531   0.0000   0.1829
  -9.300  -0.4384   0.00403   0.00178  -0.0288  0.6602  0.0064  -5.6720   0.0000   0.1822
  -9.200  -0.4500   0.00336   0.00104  -0.0296  0.6589  0.0064  -5.7730   0.0000   0.1821
  -9.100  -0.4603   0.00283   0.00042  -0.0300  0.6575  0.0064  -5.8547   0.0000   0.1826
  -9.000  -0.4695   0.00239  -0.00009  -0.0302  0.6560  0.0063  -5.9174   0.0000   0.1835
  -8.900  -0.4778   0.00204  -0.00052  -0.0302  0.6544  0.0063  -5.9657   0.0000   0.1848
  -8.800  -0.4852   0.00174  -0.00088  -0.0299  0.6527  0.0062  -6.0015   0.0000   0.1864
  -8.700  -0.4921   0.00150  -0.00119  -0.0294  0.6510  0.0062  -6.0276   0.0000   0.1883
  -8.600  -0.4988   0.00129  -0.00146  -0.0286  0.6499  0.0062  -6.0472   0.0000   0.1905
  -8.500  -0.5053   0.00113  -0.00168  -0.0277  0.6497  0.0062  -6.0615   0.0000   0.1932
  -8.400  -0.5128   0.00099  -0.00187  -0.0264  0.6494  0.0061  -6.0761   0.0000   0.1966
  -8.300  -0.5196   0.00083  -0.00208  -0.0250  0.6491  0.0061  -6.0849   0.0000   0.1998
  -8.200  -0.5222   0.00068  -0.00230  -0.0242  0.6486  0.0061  -6.0703   0.0000   0.2016
  -8.100  -0.5224   0.00056  -0.00250  -0.0236  0.6481  0.0060  -6.0393   0.0000   0.2030
  -8.000  -0.5212   0.00044  -0.00269  -0.0230  0.6474  0.0060  -5.9984   0.0000   0.2041
  -7.900  -0.5192   0.00034  -0.00287  -0.0224  0.6466  0.0060  -5.9536   0.0000   0.2052
  -7.800  -0.5167   0.00026  -0.00306  -0.0218  0.6455  0.0059  -5.9090   0.0000   0.2062
  -7.700  -0.5140   0.00018  -0.00325  -0.0212  0.6443  0.0059  -5.8683   0.0000   0.2073
  -7.600  -0.5115   0.00012  -0.00346  -0.0205  0.6426  0.0060  -5.8320   0.0000   0.2085
  -7.500  -0.5083   0.00008  -0.00366  -0.0199  0.6407  0.0063  -5.8256   0.0000   0.2096
  -7.400  -0.5011   0.00006  -0.00373  -0.0197  0.6390  0.0067  -5.7415   0.0000   0.2096
  -7.300  -0.4920   0.00006  -0.00373  -0.0197  0.6374  0.0070  -5.6040   0.0000   0.2090
  -7.200  -0.4824   0.00005  -0.00371  -0.0198  0.6359  0.0072  -5.4558   0.0000   0.2082
  -7.100  -0.4726   0.00005  -0.00369  -0.0199  0.6344  0.0074  -5.3046   0.0000   0.2073
  -7.000  -0.4629   0.00005  -0.00368  -0.0199  0.6328  0.0076  -5.1543   0.0000   0.2064
  -6.900  -0.4531   0.00005  -0.00367  -0.0200  0.6312  0.0078  -5.0059   0.0000   0.2054
  -6.800  -0.4434   0.00004  -0.00366  -0.0201  0.6295  0.0081  -4.8596   0.0000   0.2044
  -6.700  -0.4336   0.00004  -0.00366  -0.0202  0.6276  0.0083  -4.7153   0.0000   0.2033
  -6.600  -0.4239   0.00004  -0.00366  -0.0202  0.6257  0.0086  -4.5729   0.0000   0.2022
  -6.500  -0.4142   0.00003  -0.00367  -0.0203  0.6236  0.0088  -4.4322   0.0000   0.2010
  -6.400  -0.4046   0.00003  -0.00367  -0.0204  0.6212  0.0091  -4.2933   0.0000   0.1999
  -6.300  -0.3951   0.00002  -0.00368  -0.0204  0.6187  0.0093  -4.1564   0.0000   0.1987
  -6.200  -0.3857   0.00002  -0.00369  -0.0204  0.6160  0.0095  -4.0204   0.0000   0.1975
  -6.100  -0.3760   0.00002  -0.00369  -0.0205  0.6132  0.0097  -3.8848   0.0000   0.1961
  -6.000  -0.3664   0.00001  -0.00369  -0.0205  0.6104  0.0099  -3.7502   0.0000   0.1946
  -5.900  -0.3567   0.00001  -0.00368  -0.0206  0.6097  0.0100  -3.6156   0.0000   0.1931
  -5.800  -0.3470   0.00001  -0.00367  -0.0207  0.6092  0.0101  -3.4827   0.0000   0.1914
  -5.700  -0.3373   0.00001  -0.00366  -0.0207  0.6087  0.0102  -3.3541   0.0000   0.1897
  -5.600  -0.3282   0.00001  -0.00371  -0.0207  0.6080  0.0102  -3.2540   0.0000   0.1882
  -5.500  -0.3183   0.00001  -0.00370  -0.0208  0.6073  0.0103  -3.1226   0.0000   0.1862
  -5.400  -0.3084   0.00001  -0.00368  -0.0208  0.6065  0.0104  -2.9908   0.0000   0.1839
  -5.300  -0.2984   0.00000  -0.00366  -0.0209  0.6056  0.0105  -2.8580   0.0000   0.1815
  -5.200  -0.2883   0.00000  -0.00364  -0.0210  0.6047  0.0106  -2.7217   0.0000   0.1788
  -5.100  -0.2807   0.00000  -0.00376  -0.0209  0.6025  0.0112  -2.7254   0.0000   0.1774
  -5.000  -0.2720   0.00000  -0.00382  -0.0209  0.6002  0.0118  -2.7154   0.0000   0.1754
  -4.900  -0.2626   0.00000  -0.00385  -0.0210  0.5980  0.0122  -2.6625   0.0000   0.1727
  -4.800  -0.2530   0.00000  -0.00386  -0.0210  0.5956  0.0126  -2.5935   0.0000   0.1696
  -4.700  -0.2432   0.00000  -0.00387  -0.0211  0.5932  0.0130  -2.5117   0.0000   0.1661
  -4.600  -0.2333   0.00000  -0.00387  -0.0213  0.5908  0.0135  -2.4159   0.0000   0.1621
  -4.500  -0.2233   0.00000  -0.00387  -0.0214  0.5884  0.0142  -2.2997   0.0000   0.1575
  -4.400  -0.2122   0.00000  -0.00388  -0.0219  0.5879  0.0182  -1.9480   0.0000   0.1501
  -4.300  -0.2023   0.00000  -0.00391  -0.0220  0.5848  0.0183  -1.9036   0.0000   0.1450
  -4.200  -0.1924   0.00000  -0.00395  -0.0221  0.5815  0.0184  -1.8601   0.0000   0.1394
  -4.100  -0.1825   0.00000  -0.00398  -0.0222  0.5778  0.0184  -1.8174   0.0000   0.1331
  -4.000  -0.1727   0.00000  -0.00401  -0.0222  0.5738  0.0184  -1.7760   0.0000   0.1261
  -3.900  -0.1629   0.00000  -0.00403  -0.0223  0.5700  0.0184  -1.7352   0.0000   0.1184
  -3.800  -0.1532   0.00000  -0.00404  -0.0223  0.5694  0.0186  -1.6851   0.0000   0.1099
  -3.700  -0.1433   0.00000  -0.00404  -0.0224  0.5687  0.0189  -1.6281   0.0000   0.1000
  -3.600  -0.1335   0.00000  -0.00404  -0.0224  0.5678  0.0192  -1.5704   0.0000   0.0885
  -3.500  -0.1236   0.00000  -0.00405  -0.0225  0.5667  0.0194  -1.5182   0.0000   0.0754
  -3.400  -0.1139   0.00000  -0.00405  -0.0225  0.5653  0.0193  -1.4838   0.0000   0.0602
  -3.300  -0.1039   0.00000  -0.00405  -0.0226  0.5637  0.0191  -1.4556   0.0000   0.0414
  -3.200  -0.0939   0.00000  -0.00405  -0.0227  0.5618  0.0189  -1.4244   0.0000   0.0179
  -3.100  -0.0829   0.00000  -0.00406  -0.0231  0.5597  0.0187  -1.3977   0.0000  -0.0177
  -3.000  -0.0725   0.00000  -0.00407  -0.0233  0.5572  0.0186  -1.3621   0.0000  -0.0586
  -2.900  -0.0620   0.00000  -0.00408  -0.0236  0.5543  0.0184  -1.3245   0.0000  -0.1143
  -2.800  -0.0513   0.00000  -0.00409  -0.0238  0.5511  0.0183  -1.2853   0.0000  -0.1949
  -2.700  -0.0405   0.00000  -0.00411  -0.0241  0.5477  0.0182  -1.2449   0.0000  -0.3219
  -2.600  -0.0294   0.00000  -0.00414  -0.0245  0.5438  0.0181  -1.2036   0.0000  -0.5488
  -2.500  -0.0183   0.00000  -0.00416  -0.0249  0.5396  0.0180  -1.1615   0.0000  -1.0559
  -2.400  -0.0072   0.00000  -0.00419  -0.0252  0.5354  0.0179  -1.1191   0.0000  -3.1088
  -2.300   0.0037   0.00001  -0.00422  -0.0255  0.5312  0.0178  -1.0767   0.0000   6.8659
  -2.200   0.0145   0.00001  -0.00423  -0.0258  0.5296  0.0178  -1.0340   0.0000   1.9589
  -2.100   0.0253   0.00001  -0.00423  -0.0261  0.5289  0.0178  -0.9910   0.0000   1.2408
  -2.000   0.0360   0.00001  -0.00424  -0.0263  0.5280  0.0178  -0.9480   0.0000   0.9521
  -1.900   0.0467   0.00001  -0.00425  -0.0266  0.5269  0.0178  -0.9050   0.0000   0.7963
  -1.800   0.0574   0.00001  -0.00425  -0.0268  0.5255  0.0179  -0.8621   0.0000   0.6986
  -1.700   0.0681   0.00001  -0.00426  -0.0270  0.5240  0.0181  -0.8195   0.0000   0.6316
  -1.600   0.0787   0.00001  -0.00427  -0.0272  0.5222  0.0183  -0.7772   0.0000   0.5827
  -1.500   0.0893   0.00001  -0.00428  -0.0274  0.5201  0.0187  -0.7356   0.0000   0.5455
  -1.400   0.1000   0.00001  -0.00429  -0.0277  0.5178  0.0193  -0.6947   0.0000   0.5162
  -1.300   0.1106   0.00001  -0.00430  -0.0279  0.5152  0.0204  -0.6530   0.0000   0.4925
  -1.200   0.1225   0.00001  -0.00422  -0.0284  0.5120  0.0493  -0.6217   0.0000   0.4735
  -1.100   0.1338   0.00001  -0.00418  -0.0289  0.5086  0.0702  -0.5710   0.0000   0.4579
  -1.000   0.1447   0.00001  -0.00417  -0.0292  0.5048  0.0797  -0.5208   0.0000   0.4444
  -0.900   0.1573   0.00001  -0.00405  -0.0300  0.4998  0.1288  -0.4665   0.0000   0.4340
  -0.800   0.1691   0.00001  -0.00398  -0.0306  0.4949  0.1668  -0.4145   0.0000   0.4247
  -0.700   0.1812   0.00001  -0.00387  -0.0313  0.4902  0.2098  -0.3626   0.0000   0.4169
  -0.600   0.1931   0.00001  -0.00375  -0.0319  0.4893  0.2514  -0.3114   0.0000   0.4098
  -0.500   0.2051   0.00001  -0.00364  -0.0325  0.4881  0.2961  -0.3021   0.0000   0.4034
  -0.400   0.2168   0.00001  -0.00354  -0.0331  0.4865  0.3340  -0.3109   0.0000   0.3976
  -0.300   0.2297   0.00002  -0.00339  -0.0339  0.4840  0.3921  -0.3202   0.0000   0.3929
  -0.200   0.2417   0.00002  -0.00331  -0.0345  0.4804  0.4312  -0.3303   0.0000   0.3883
  -0.100   0.2529   0.00002  -0.00329  -0.0349  0.4757  0.4498  -0.3400   0.0000   0.3835
   0.000   0.2648   0.00002  -0.00327  -0.0354  0.4692  0.4708  -0.3503   0.0000   0.3796
   0.100   0.3035   0.00605   0.00102  -0.0426  0.5425  0.5257  -0.7017   0.0000   0.3887
   0.200   0.3139   0.00608   0.00102  -0.0425  0.5325  0.5365  -0.7101   0.0000   0.3836
   0.300   0.3246   0.00603   0.00102  -0.0425  0.5282  0.5513  -0.7188   0.0000   0.3789
   0.400   0.3355   0.00601   0.00102  -0.0425  0.5238  0.5614  -0.7284   0.0000   0.3745
   0.500   0.3463   0.00603   0.00101  -0.0424  0.5163  0.5684  -0.7379   0.0000   0.3703
   0.600   0.3566   0.00606   0.00101  -0.0423  0.5065  0.5774  -0.7472   0.0000   0.3664
   0.700   0.3665   0.00608   0.00102  -0.0422  0.4947  0.5910  -0.7562   0.0000   0.3625
   0.800   0.3772   0.00607   0.00103  -0.0421  0.4882  0.6036  -0.7656   0.0000   0.3591
   0.900   0.3880   0.00607   0.00104  -0.0421  0.4839  0.6150  -0.7752   0.0000   0.3558
   1.000   0.3982   0.00604   0.00105  -0.0419  0.4780  0.6333  -0.7844   0.0000   0.3526
   1.100   0.4085   0.00604   0.00106  -0.0418  0.4712  0.6471  -0.7938   0.0000   0.3495
   1.200   0.4183   0.00602   0.00108  -0.0416  0.4646  0.6694  -0.8033   0.0000   0.3465
   1.300   0.4283   0.00601   0.00110  -0.0414  0.4582  0.6931  -0.8132   0.0000   0.3437
   1.400   0.4376   0.00595   0.00113  -0.0411  0.4521  0.7266  -0.8227   0.0000   0.3408
   1.500   0.4469   0.00585   0.00115  -0.0407  0.4493  0.7676  -0.8322   0.0000   0.3379
   1.600   0.4559   0.00575   0.00118  -0.0403  0.4477  0.8088  -0.8416   0.0000   0.3350
   1.700   0.4642   0.00563   0.00122  -0.0396  0.4456  0.8561  -0.8506   0.0000   0.3318
   1.800   0.4730   0.00555   0.00127  -0.0390  0.4427  0.9005  -0.8600   0.0000   0.3289
   1.900   0.4847   0.00554   0.00133  -0.0390  0.4380  0.9350  -0.8711   0.0000   0.3269
   2.000   0.5043   0.00562   0.00140  -0.0409  0.4281  0.9577  -0.8870   0.0000   0.3273
   2.100   0.5282   0.00563   0.00144  -0.0437  0.4329  0.9666  -0.9055   0.0000   0.3289
   2.200   0.5428   0.00568   0.00147  -0.0445  0.4281  0.9694  -0.9185   0.0000   0.3282
   2.300   0.5556   0.00577   0.00151  -0.0450  0.4200  0.9727  -0.9305   0.0000   0.3270
   2.400   0.5672   0.00585   0.00155  -0.0451  0.4111  0.9761  -0.9443   0.0000   0.3255
   2.500   0.5772   0.00590   0.00158  -0.0449  0.4077  0.9795  -0.9570   0.0000   0.3236
   2.600   0.5913   0.00594   0.00161  -0.0456  0.4047  0.9811  -0.9738   0.0000   0.3228
   2.700   0.6063   0.00598   0.00163  -0.0465  0.4015  0.9823  -0.9931   0.0000   0.3224
   2.800   0.6210   0.00602   0.00165  -0.0474  0.3981  0.9836  -1.0122   0.0000   0.3218
   2.900   0.6355   0.00607   0.00168  -0.0482  0.3944  0.9850  -1.0311   0.0000   0.3213
   3.000   0.6499   0.00613   0.00171  -0.0490  0.3904  0.9864  -1.0500   0.0000   0.3207
   3.100   0.6640   0.00619   0.00174  -0.0497  0.3860  0.9878  -1.0689   0.0000   0.3202
   3.200   0.6781   0.00625   0.00177  -0.0504  0.3810  0.9892  -1.0877   0.0000   0.3196
   3.300   0.6920   0.00631   0.00180  -0.0511  0.3756  0.9905  -1.1064   0.0000   0.3190
   3.400   0.7058   0.00635   0.00183  -0.0518  0.3708  0.9917  -1.1252   0.0000   0.3184
   3.500   0.7197   0.00638   0.00185  -0.0525  0.3693  0.9928  -1.1441   0.0000   0.3178
   3.600   0.7335   0.00641   0.00188  -0.0531  0.3680  0.9938  -1.1630   0.0000   0.3172
   3.700   0.7472   0.00644   0.00191  -0.0537  0.3663  0.9947  -1.1819   0.0000   0.3166
   3.800   0.7608   0.00647   0.00194  -0.0543  0.3638  0.9955  -1.2008   0.0000   0.3160
   3.900   0.7745   0.00651   0.00197  -0.0550  0.3604  0.9963  -1.2276   0.0000   0.3155
   4.000   0.7885   0.00657   0.00201  -0.0557  0.3551  0.9972  -1.2827   0.0000   0.3150
   4.100   0.8026   0.00666   0.00205  -0.0564  0.3480  0.9979  -1.3406   0.0000   0.3146
   4.200   0.8166   0.00677   0.00211  -0.0572  0.3385  0.9986  -1.3990   0.0000   0.3142
   4.300   0.8309   0.00686   0.00216  -0.0580  0.3290  0.9992  -1.4587   0.0000   0.3138
   4.400   0.8452   0.00693   0.00220  -0.0588  0.3220  0.9997  -1.5193   0.0000   0.3135
   4.500   0.8559   0.00708   0.00227  -0.0588  0.3079  1.0000  -1.5719   0.0000   0.3126
   4.600   0.8631   0.00725   0.00235  -0.0581  0.2913  1.0000  -1.6163   0.0000   0.3111
   4.700   0.8715   0.00733   0.00241  -0.0577  0.2838  1.0000  -1.6643   0.0000   0.3098
   4.800   0.8789   0.00749   0.00249  -0.0570  0.2705  1.0000  -1.7100   0.0000   0.3084
   4.900   0.8858   0.00769   0.00259  -0.0563  0.2541  1.0000  -1.7547   0.0000   0.3070
   5.100   0.8998   0.00807   0.00281  -0.0549  0.2250  1.0000  -1.8456   0.0000   0.3042
   5.200   0.9068   0.00827   0.00293  -0.0542  0.2090  1.0000  -1.8914   0.0000   0.3029
   5.300   0.9133   0.00850   0.00306  -0.0534  0.1940  1.0000  -1.9362   0.0000   0.3015
   5.400   0.9205   0.00870   0.00319  -0.0528  0.1839  1.0000  -1.9829   0.0000   0.3002
   5.500   0.9286   0.00882   0.00328  -0.0522  0.1764  1.0000  -2.0326   0.0000   0.2990
   5.600   0.9361   0.00899   0.00340  -0.0516  0.1663  1.0000  -2.0808   0.0000   0.2978
   5.700   0.9437   0.00916   0.00351  -0.0510  0.1563  1.0000  -2.1295   0.0000   0.2966
   5.800   0.9500   0.00941   0.00367  -0.0502  0.1387  1.0000  -2.1744   0.0000   0.2953
   5.900   0.9570   0.00961   0.00380  -0.0495  0.1276  1.0000  -2.2215   0.0000   0.2941
   6.100   0.9512   0.01135   0.00500  -0.0449  0.0190  1.0000  -2.2763   0.0000   0.2893
   6.200   0.9588   0.01152   0.00514  -0.0442  0.0162  1.0000  -2.3267   0.0000   0.2881
   6.300   0.9670   0.01164   0.00526  -0.0437  0.0139  1.0000  -2.3734   0.0000   0.2871
   6.400   0.9754   0.01176   0.00537  -0.0432  0.0128  1.0000  -2.4211   0.0000   0.2861
   6.500   0.9839   0.01187   0.00549  -0.0428  0.0121  1.0000  -2.4704   0.0000   0.2851
   6.600   0.9924   0.01198   0.00561  -0.0423  0.0117  1.0000  -2.5205   0.0000   0.2841
   6.700   1.0008   0.01209   0.00573  -0.0418  0.0113  1.0000  -2.5712   0.0000   0.2832
   6.800   1.0091   0.01221   0.00586  -0.0414  0.0110  1.0000  -2.6222   0.0000   0.2822
   6.900   1.0174   0.01233   0.00599  -0.0409  0.0108  1.0000  -2.6734   0.0000   0.2813
   7.000   1.0256   0.01245   0.00613  -0.0404  0.0106  1.0000  -2.7248   0.0000   0.2803
   7.100   1.0341   0.01255   0.00621  -0.0400  0.0105  1.0000  -2.7886   0.0000   0.2795
   7.200   1.0427   0.01264   0.00630  -0.0396  0.0105  1.0000  -2.8539   0.0000   0.2786
   7.300   1.0512   0.01274   0.00640  -0.0391  0.0105  1.0000  -2.9190   0.0000   0.2778
   7.400   1.0596   0.01284   0.00649  -0.0387  0.0104  1.0000  -2.9841   0.0000   0.2770
   7.500   1.0680   0.01294   0.00659  -0.0383  0.0104  1.0000  -3.0492   0.0000   0.2762
   7.600   1.0763   0.01304   0.00669  -0.0378  0.0103  1.0000  -3.1143   0.0000   0.2753
   7.700   1.0845   0.01315   0.00680  -0.0374  0.0103  1.0000  -3.1793   0.0000   0.2745
   7.800   1.0906   0.01340   0.00715  -0.0364  0.0109  1.0000  -3.1393   0.0000   0.2733
   7.900   1.0984   0.01352   0.00728  -0.0358  0.0110  1.0000  -3.1914   0.0000   0.2724
   8.000   1.1058   0.01367   0.00744  -0.0352  0.0109  1.0000  -3.2433   0.0000   0.2715
   8.100   1.1129   0.01382   0.00761  -0.0345  0.0108  1.0000  -3.2948   0.0000   0.2705
   8.200   1.1198   0.01399   0.00780  -0.0338  0.0107  1.0000  -3.3458   0.0000   0.2696
   8.300   1.1265   0.01416   0.00799  -0.0331  0.0106  1.0000  -3.3960   0.0000   0.2686
   8.400   1.1342   0.01427   0.00809  -0.0326  0.0105  1.0000  -3.4640   0.0000   0.2678
   8.500   1.1420   0.01437   0.00818  -0.0321  0.0105  1.0000  -3.5350   0.0000   0.2670
   8.600   1.1497   0.01447   0.00827  -0.0315  0.0105  1.0000  -3.6068   0.0000   0.2662
   8.700   1.1573   0.01457   0.00836  -0.0310  0.0104  1.0000  -3.6791   0.0000   0.2654
   8.800   1.1648   0.01467   0.00846  -0.0304  0.0104  1.0000  -3.7517   0.0000   0.2646
   8.900   1.1722   0.01477   0.00856  -0.0299  0.0103  1.0000  -3.8242   0.0000   0.2638
   9.000   1.1795   0.01488   0.00866  -0.0293  0.0103  1.0000  -3.8966   0.0000   0.2630
   9.100   1.1866   0.01499   0.00877  -0.0287  0.0102  1.0000  -3.9687   0.0000   0.2622
   9.200   1.1932   0.01511   0.00889  -0.0279  0.0102  1.0000  -4.0387   0.0000   0.2613
   9.300   1.1987   0.01523   0.00901  -0.0270  0.0101  1.0000  -4.1044   0.0000   0.2603
   9.400   1.2034   0.01534   0.00913  -0.0259  0.0100  1.0000  -4.1673   0.0000   0.2591
   9.500   1.2081   0.01547   0.00926  -0.0248  0.0099  1.0000  -4.2295   0.0000   0.2580
   9.600   1.2129   0.01560   0.00939  -0.0238  0.0098  1.0000  -4.2923   0.0000   0.2569
   9.700   1.2179   0.01573   0.00953  -0.0228  0.0097  1.0000  -4.3559   0.0000   0.2559
   9.800   1.2231   0.01588   0.00968  -0.0218  0.0096  1.0000  -4.4202   0.0000   0.2549
   9.900   1.2282   0.01603   0.00984  -0.0209  0.0094  1.0000  -4.4842   0.0000   0.2539
  10.000   1.2331   0.01619   0.01001  -0.0200  0.0093  1.0000  -4.5479   0.0000   0.2529
  10.100   1.2381   0.01636   0.01019  -0.0191  0.0091  1.0000  -4.6120   0.0000   0.2519
  10.200   1.2433   0.01654   0.01038  -0.0182  0.0090  1.0000  -4.6768   0.0000   0.2510
  10.300   1.2484   0.01673   0.01058  -0.0174  0.0088  1.0000  -4.7420   0.0000   0.2501
  10.400   1.2534   0.01694   0.01079  -0.0165  0.0086  1.0000  -4.8065   0.0000   0.2493
  10.500   1.2583   0.01715   0.01101  -0.0157  0.0084  1.0000  -4.8712   0.0000   0.2484
  10.600   1.2632   0.01738   0.01124  -0.0149  0.0082  1.0000  -4.9362   0.0000   0.2476
  10.700   1.2679   0.01762   0.01148  -0.0142  0.0080  1.0000  -5.0009   0.0000   0.2467
  10.800   1.2682   0.01810   0.01193  -0.0129  0.0063  1.0000  -5.0987   0.0000   0.2456
  10.900   1.2719   0.01842   0.01227  -0.0121  0.0058  1.0000  -5.1638   0.0000   0.2447
  11.000   1.2760   0.01874   0.01260  -0.0114  0.0055  1.0000  -5.2254   0.0000   0.2439
  11.100   1.2804   0.01906   0.01293  -0.0107  0.0055  1.0000  -5.2867   0.0000   0.2432
  11.200   1.2849   0.01938   0.01327  -0.0100  0.0055  1.0000  -5.3481   0.0000   0.2425
  11.300   1.2891   0.01973   0.01364  -0.0094  0.0054  1.0000  -5.4081   0.0000   0.2418
  11.400   1.2933   0.02009   0.01402  -0.0088  0.0054  1.0000  -5.4682   0.0000   0.2411
  11.500   1.2976   0.02045   0.01440  -0.0082  0.0054  1.0000  -5.5288   0.0000   0.2405
  11.600   1.3017   0.02083   0.01480  -0.0076  0.0053  1.0000  -5.5888   0.0000   0.2398
  11.700   1.3055   0.02124   0.01524  -0.0070  0.0053  1.0000  -5.6472   0.0000   0.2392
  11.800   1.3094   0.02166   0.01568  -0.0065  0.0053  1.0000  -5.7063   0.0000   0.2386
  11.900   1.3134   0.02209   0.01613  -0.0060  0.0053  1.0000  -5.7661   0.0000   0.2380
  12.000   1.3170   0.02256   0.01663  -0.0055  0.0052  1.0000  -5.8238   0.0000   0.2374
  12.100   1.3204   0.02306   0.01715  -0.0051  0.0052  1.0000  -5.8810   0.0000   0.2369
  12.200   1.3240   0.02355   0.01767  -0.0047  0.0052  1.0000  -5.9394   0.0000   0.2364
  12.300   1.3277   0.02405   0.01819  -0.0042  0.0052  1.0000  -5.9983   0.0000   0.2358
  12.400   1.3308   0.02461   0.01878  -0.0039  0.0052  1.0000  -6.0543   0.0000   0.2354
  12.500   1.3337   0.02519   0.01939  -0.0035  0.0052  1.0000  -6.1097   0.0000   0.2349
  12.600   1.3368   0.02576   0.01999  -0.0031  0.0051  1.0000  -6.1663   0.0000   0.2344
  12.700   1.3400   0.02634   0.02059  -0.0028  0.0051  1.0000  -6.2231   0.0000   0.2339
  12.800   1.3423   0.02700   0.02127  -0.0024  0.0051  1.0000  -6.2759   0.0000   0.2335
  12.900   1.3445   0.02767   0.02198  -0.0021  0.0051  1.0000  -6.3281   0.0000   0.2330
  13.000   1.3470   0.02832   0.02266  -0.0018  0.0051  1.0000  -6.3821   0.0000   0.2326
  13.100   1.3495   0.02897   0.02334  -0.0015  0.0051  1.0000  -6.4365   0.0000   0.2322
  13.200   1.3514   0.02970   0.02410  -0.0012  0.0051  1.0000  -6.4878   0.0000   0.2318
  13.300   1.3528   0.03050   0.02493  -0.0010  0.0050  1.0000  -6.5360   0.0000   0.2314
  13.400   1.3569   0.03104   0.02549  -0.0008  0.0051  1.0000  -6.5881   0.0000   0.2310
  13.500   1.3591   0.03175   0.02624  -0.0006  0.0051  1.0000  -6.6396   0.0000   0.2306
  13.600   1.3611   0.03249   0.02700  -0.0003  0.0050  1.0000  -6.6909   0.0000   0.2302
  13.700   1.3620   0.03336   0.02790  -0.0001  0.0050  1.0000  -6.7368   0.0000   0.2299
  13.800   1.3625   0.03427   0.02885   0.0000  0.0050  1.0000  -6.7808   0.0000   0.2295
  13.900   1.3635   0.03513   0.02975   0.0002  0.0050  1.0000  -6.8276   0.0000   0.2292
  14.000   1.3645   0.03598   0.03063   0.0004  0.0050  1.0000  -6.8752   0.0000   0.2288
  14.100   1.3654   0.03684   0.03152   0.0007  0.0050  1.0000  -6.9221   0.0000   0.2284
  14.200   1.3650   0.03784   0.03256   0.0008  0.0050  1.0000  -6.9616   0.0000   0.2281
  14.300   1.3640   0.03892   0.03368   0.0009  0.0050  1.0000  -6.9979   0.0000   0.2278
  14.400   1.3638   0.03991   0.03470   0.0011  0.0050  1.0000  -7.0389   0.0000   0.2275
  14.500   1.3638   0.04088   0.03571   0.0012  0.0050  1.0000  -7.0814   0.0000   0.2271
  14.600   1.3638   0.04187   0.03673   0.0014  0.0050  1.0000  -7.1236   0.0000   0.2268
  14.700   1.3635   0.04290   0.03780   0.0015  0.0049  1.0000  -7.1641   0.0000   0.2265
  14.800   1.3611   0.04422   0.03916   0.0015  0.0049  1.0000  -7.1919   0.0000   0.2263
  14.900   1.3596   0.04544   0.04042   0.0015  0.0049  1.0000  -7.2249   0.0000   0.2260
  15.000   1.3587   0.04659   0.04161   0.0015  0.0049  1.0000  -7.2618   0.0000   0.2258
  15.100   1.3579   0.04773   0.04279   0.0016  0.0049  1.0000  -7.2992   0.0000   0.2255
  15.200   1.3570   0.04890   0.04400   0.0016  0.0049  1.0000  -7.3358   0.0000   0.2253
  15.300   1.3548   0.05027   0.04541   0.0015  0.0049  1.0000  -7.3638   0.0000   0.2251
  15.400   1.3516   0.05180   0.04698   0.0013  0.0049  1.0000  -7.3857   0.0000   0.2251
  15.500   1.3496   0.05314   0.04836   0.0012  0.0049  1.0000  -7.4151   0.0000   0.2249
  15.600   1.3479   0.05443   0.04969   0.0011  0.0049  1.0000  -7.4466   0.0000   0.2247
  15.700   1.3462   0.05574   0.05104   0.0010  0.0049  1.0000  -7.4777   0.0000   0.2246
  15.800   1.3441   0.05711   0.05245   0.0009  0.0049  1.0000  -7.5187   0.0000   0.2244
  15.900   1.3398   0.05889   0.05428   0.0005  0.0049  1.0000  -7.5411   0.0000   0.2245
  16.000   1.3365   0.06051   0.05595   0.0002  0.0049  1.0000  -7.5730   0.0000   0.2244
  16.100   1.3339   0.06201   0.05749   0.0000  0.0049  1.0000  -7.6112   0.0000   0.2244
  16.200   1.3316   0.06350   0.05902  -0.0002  0.0049  1.0000  -7.6507   0.0000   0.2243
  16.300   1.3291   0.06502   0.06058  -0.0005  0.0049  1.0000  -7.6883   0.0000   0.2242
  16.400   1.3255   0.06674   0.06235  -0.0008  0.0049  1.0000  -7.7148   0.0000   0.2243
  16.500   1.3201   0.06877   0.06443  -0.0014  0.0049  1.0000  -7.7245   0.0000   0.2245
  16.600   1.3167   0.07048   0.06618  -0.0018  0.0049  1.0000  -7.7522   0.0000   0.2245
  16.700   1.3138   0.07212   0.06787  -0.0021  0.0049  1.0000  -7.7830   0.0000   0.2246
  16.800   1.3107   0.07377   0.06956  -0.0024  0.0049  1.0000  -7.8127   0.0000   0.2246
  16.900   1.3074   0.07546   0.07129  -0.0028  0.0049  1.0000  -7.8392   0.0000   0.2246
  17.000   1.3028   0.07736   0.07324  -0.0033  0.0049  1.0000  -7.8529   0.0000   0.2248
  17.100   1.2965   0.07960   0.07553  -0.0040  0.0049  1.0000  -7.8502   0.0000   0.2251
  17.200   1.2922   0.08150   0.07748  -0.0045  0.0049  1.0000  -7.8649   0.0000   0.2253
  17.300   1.2882   0.08333   0.07935  -0.0050  0.0049  1.0000  -7.8829   0.0000   0.2254
  17.400   1.2842   0.08517   0.08124  -0.0055  0.0049  1.0000  -7.8998   0.0000   0.2256
  17.500   1.2801   0.08708   0.08319  -0.0060  0.0049  1.0000  -7.9145   0.0000   0.2258
  17.600   1.2732   0.08956   0.08573  -0.0069  0.0049  1.0000  -7.9002   0.0000   0.2263
  17.800   1.2601   0.09421   0.09049  -0.0083  0.0049  1.0000  -7.8648   0.0000   0.2270
  17.900   1.2551   0.09627   0.09260  -0.0089  0.0049  1.0000  -7.8639   0.0000   0.2273
  18.000   1.2504   0.09832   0.09470  -0.0095  0.0049  1.0000  -7.8656   0.0000   0.2276
  18.100   1.2455   0.10042   0.09684  -0.0102  0.0049  1.0000  -7.8650   0.0000   0.2279
  18.200   1.2387   0.10294   0.09942  -0.0111  0.0049  1.0000  -7.8448   0.0000   0.2285
  18.300   1.2316   0.10551   0.10204  -0.0121  0.0049  1.0000  -7.8221   0.0000   0.2291
  18.400   1.2264   0.10769   0.10427  -0.0128  0.0049  1.0000  -7.8151   0.0000   0.2296
  18.500   1.2214   0.10979   0.10641  -0.0135  0.0049  1.0000  -7.8106   0.0000   0.2299
  18.600   1.2165   0.11190   0.10857  -0.0142  0.0049  1.0000  -7.8048   0.0000   0.2303
  18.700   1.2113   0.11406   0.11078  -0.0149  0.0049  1.0000  -7.7960   0.0000   0.2308
  18.800   1.2057   0.11634   0.11311  -0.0158  0.0049  1.0000  -7.7818   0.0000   0.2313
  18.900   1.1974   0.11926   0.11607  -0.0170  0.0049  1.0000  -7.7388   0.0000   0.2322
  19.000   1.1914   0.12173   0.11859  -0.0180  0.0049  1.0000  -7.7163   0.0000   0.2329
  19.100   1.1859   0.12406   0.12098  -0.0189  0.0049  1.0000  -7.6985   0.0000   0.2335
  19.200   1.1805   0.12640   0.12337  -0.0198  0.0049  1.0000  -7.6795   0.0000   0.2341
  19.300   1.1748   0.12881   0.12581  -0.0207  0.0049  1.0000  -7.6567   0.0000   0.2348
  19.400   1.1676   0.13158   0.12864  -0.0219  0.0049  1.0000  -7.6163   0.0000   0.2358
  19.500   1.1605   0.13438   0.13149  -0.0231  0.0049  1.0000  -7.5744   0.0000   0.2368
  19.600   1.1545   0.13694   0.13409  -0.0242  0.0049  1.0000  -7.5424   0.0000   0.2376
  19.700   1.1486   0.13947   0.13668  -0.0253  0.0049  1.0000  -7.5095   0.0000   0.2385
  19.800   1.1423   0.14211   0.13936  -0.0265  0.0049  1.0000  -7.4708   0.0000   0.2395
  19.900   1.1345   0.14517   0.14246  -0.0279  0.0049  1.0000  -7.4123   0.0000   0.2408
  20.000   1.1280   0.14793   0.14527  -0.0292  0.0049  1.0000  -7.3660   0.0000   0.2418
  20.100   1.1217   0.15066   0.14805  -0.0304  0.0049  1.0000  -7.3199   0.0000   0.2429
  20.200   1.1143   0.15362   0.15106  -0.0318  0.0049  1.0000  -7.2603   0.0000   0.2442
  20.300   1.1071   0.15655   0.15403  -0.0332  0.0049  1.0000  -7.1998   0.0000   0.2455
  20.400   1.1002   0.15944   0.15697  -0.0346  0.0049  1.0000  -7.1405   0.0000   0.2468
  20.500   1.0930   0.16250   0.16007  -0.0361  0.0049  1.0000  -7.0762   0.0000   0.2483
  29.500   0.9345   0.44457   0.44341  -0.1676  0.0046  1.0000  -1.1215   0.0000   0.3894
  29.600   0.9361   0.44706   0.44590  -0.1683  0.0046  1.0000  -1.1213   0.0000   0.3895
  29.700   0.9377   0.44954   0.44838  -0.1690  0.0046  1.0000  -1.1212   0.0000   0.3896
  29.800   0.9393   0.45202   0.45087  -0.1696  0.0046  1.0000  -1.1211   0.0000   0.3898
  29.900   0.9408   0.45450   0.45335  -0.1703  0.0045  1.0000  -1.1211   0.0000   0.3899
  30.000   0.9424   0.45698   0.45583  -0.1710  0.0045  1.0000  -1.1210   0.0000   0.3900


