xflr5 v6.48

 Calculated polar for: BOEING-VERTOL VR-7 AIRFOIL

 1 1 Reynolds number fixed          Mach number fixed         

 xtrf =   1.000 (top)        1.000 (bottom)
 Mach =   0.000     Re =     0.500 e 6     Ncrit =   9.000

  alpha     CL        CD       CDp       Cm    Top Xtr Bot Xtr   Cpmin    Chinge    XCp    
 ------- -------- --------- --------- -------- ------- ------- -------- --------- ---------
 -30.000  -0.8504   0.34673   0.34408   0.0962  1.0000  0.0054  -1.5511   0.0000   0.3294
 -29.900  -0.8479   0.34568   0.34303   0.0954  1.0000  0.0054  -1.5502   0.0000   0.3290
 -29.800  -0.8454   0.34462   0.34197   0.0946  1.0000  0.0054  -1.5493   0.0000   0.3285
 -29.700  -0.8429   0.34357   0.34091   0.0937  1.0000  0.0054  -1.5484   0.0000   0.3281
 -29.600  -0.8404   0.34251   0.33986   0.0929  1.0000  0.0054  -1.5475   0.0000   0.3277
 -29.500  -0.8379   0.34145   0.33880   0.0921  1.0000  0.0054  -1.5467   0.0000   0.3272
 -29.400  -0.8354   0.34040   0.33774   0.0912  1.0000  0.0055  -1.5459   0.0000   0.3268
 -29.300  -0.8328   0.33934   0.33667   0.0904  1.0000  0.0055  -1.5451   0.0000   0.3263
 -29.200  -0.8303   0.33828   0.33561   0.0896  1.0000  0.0055  -1.5443   0.0000   0.3259
 -29.100  -0.8277   0.33722   0.33455   0.0888  1.0000  0.0055  -1.5435   0.0000   0.3254
 -29.000  -0.8251   0.33615   0.33348   0.0880  1.0000  0.0055  -1.5427   0.0000   0.3250
 -28.900  -0.8225   0.33509   0.33242   0.0871  1.0000  0.0055  -1.5420   0.0000   0.3245
 -28.800  -0.8199   0.33403   0.33135   0.0863  1.0000  0.0055  -1.5413   0.0000   0.3241
 -28.700  -0.8173   0.33296   0.33028   0.0855  1.0000  0.0055  -1.5406   0.0000   0.3236
 -28.600  -0.8147   0.33189   0.32921   0.0847  1.0000  0.0055  -1.5398   0.0000   0.3231
 -28.500  -0.8120   0.33082   0.32813   0.0839  1.0000  0.0055  -1.5388   0.0000   0.3227
 -28.400  -0.8094   0.32976   0.32706   0.0831  1.0000  0.0055  -1.5382   0.0000   0.3222
 -28.300  -0.8067   0.32869   0.32599   0.0822  1.0000  0.0055  -1.5376   0.0000   0.3217
 -28.200  -0.8041   0.32762   0.32492   0.0814  1.0000  0.0055  -1.5370   0.0000   0.3213
 -28.100  -0.8014   0.32655   0.32385   0.0806  1.0000  0.0055  -1.5365   0.0000   0.3208
 -28.000  -0.7987   0.32548   0.32278   0.0798  1.0000  0.0055  -1.5360   0.0000   0.3203
 -27.900  -0.7960   0.32441   0.32171   0.0790  1.0000  0.0055  -1.5356   0.0000   0.3198
 -27.800  -0.7933   0.32334   0.32064   0.0782  1.0000  0.0055  -1.5351   0.0000   0.3193
 -27.700  -0.7905   0.32227   0.31957   0.0774  1.0000  0.0055  -1.5347   0.0000   0.3188
 -27.600  -0.7878   0.32120   0.31849   0.0766  1.0000  0.0055  -1.5343   0.0000   0.3183
 -27.500  -0.7850   0.32013   0.31742   0.0758  1.0000  0.0055  -1.5340   0.0000   0.3178
 -27.400  -0.7823   0.31906   0.31635   0.0750  1.0000  0.0055  -1.5336   0.0000   0.3173
 -27.300  -0.7795   0.31799   0.31527   0.0742  1.0000  0.0055  -1.5333   0.0000   0.3168
 -27.200  -0.7767   0.31691   0.31420   0.0734  1.0000  0.0055  -1.5331   0.0000   0.3163
 -27.100  -0.7739   0.31584   0.31312   0.0726  1.0000  0.0055  -1.5328   0.0000   0.3158
 -27.000  -0.7711   0.31477   0.31205   0.0718  1.0000  0.0055  -1.5326   0.0000   0.3153
 -26.900  -0.7683   0.31369   0.31097   0.0710  1.0000  0.0055  -1.5325   0.0000   0.3148
 -26.800  -0.7655   0.31262   0.30990   0.0702  1.0000  0.0055  -1.5323   0.0000   0.3143
 -26.700  -0.7627   0.31155   0.30882   0.0694  1.0000  0.0055  -1.5322   0.0000   0.3137
 -26.600  -0.7598   0.31047   0.30775   0.0686  1.0000  0.0055  -1.5322   0.0000   0.3132
 -26.500  -0.7570   0.30940   0.30667   0.0678  1.0000  0.0055  -1.5321   0.0000   0.3127
 -26.400  -0.7541   0.30833   0.30560   0.0670  1.0000  0.0055  -1.5322   0.0000   0.3121
 -26.300  -0.7512   0.30725   0.30452   0.0663  1.0000  0.0055  -1.5322   0.0000   0.3116
 -26.200  -0.7483   0.30618   0.30345   0.0655  1.0000  0.0055  -1.5323   0.0000   0.3111
 -26.100  -0.7454   0.30511   0.30237   0.0647  1.0000  0.0055  -1.5325   0.0000   0.3105
 -26.000  -0.7425   0.30404   0.30130   0.0639  1.0000  0.0055  -1.5328   0.0000   0.3100
 -25.900  -0.7396   0.30297   0.30023   0.0631  1.0000  0.0055  -1.5333   0.0000   0.3094
 -25.800  -0.7367   0.30190   0.29915   0.0623  1.0000  0.0055  -1.5339   0.0000   0.3088
 -25.700  -0.7338   0.30083   0.29808   0.0616  1.0000  0.0055  -1.5342   0.0000   0.3083
 -25.600  -0.7308   0.29976   0.29701   0.0608  1.0000  0.0055  -1.5345   0.0000   0.3077
 -25.500  -0.7279   0.29868   0.29594   0.0600  1.0000  0.0055  -1.5349   0.0000   0.3071
 -25.400  -0.7249   0.29761   0.29486   0.0592  1.0000  0.0055  -1.5353   0.0000   0.3065
 -25.300  -0.7219   0.29654   0.29379   0.0585  1.0000  0.0055  -1.5357   0.0000   0.3060
 -25.200  -0.7190   0.29547   0.29272   0.0577  1.0000  0.0055  -1.5362   0.0000   0.3054
 -25.100  -0.7160   0.29440   0.29165   0.0569  1.0000  0.0055  -1.5368   0.0000   0.3048
 -25.000  -0.7130   0.29334   0.29058   0.0562  1.0000  0.0055  -1.5374   0.0000   0.3042
 -24.900  -0.7100   0.29227   0.28951   0.0554  1.0000  0.0055  -1.5380   0.0000   0.3036
 -24.800  -0.7070   0.29120   0.28844   0.0546  1.0000  0.0055  -1.5387   0.0000   0.3030
 -24.700  -0.7039   0.29013   0.28738   0.0539  1.0000  0.0055  -1.5395   0.0000   0.3024
 -24.600  -0.7009   0.28907   0.28631   0.0531  1.0000  0.0055  -1.5403   0.0000   0.3018
 -24.500  -0.6979   0.28800   0.28525   0.0523  1.0000  0.0055  -1.5411   0.0000   0.3011
 -24.400  -0.6948   0.28694   0.28418   0.0516  1.0000  0.0055  -1.5420   0.0000   0.3005
 -24.300  -0.6918   0.28588   0.28312   0.0508  1.0000  0.0055  -1.5430   0.0000   0.2999
 -24.200  -0.6887   0.28481   0.28205   0.0500  1.0000  0.0055  -1.5440   0.0000   0.2992
 -24.100  -0.6856   0.28375   0.28099   0.0493  1.0000  0.0055  -1.5451   0.0000   0.2986
 -24.000  -0.6825   0.28269   0.27993   0.0485  1.0000  0.0055  -1.5462   0.0000   0.2979
 -23.900  -0.6794   0.28163   0.27886   0.0478  1.0000  0.0055  -1.5474   0.0000   0.2973
 -23.800  -0.6763   0.28057   0.27780   0.0470  1.0000  0.0055  -1.5486   0.0000   0.2966
 -23.700  -0.6732   0.27950   0.27674   0.0463  1.0000  0.0055  -1.5500   0.0000   0.2960
 -23.600  -0.6701   0.27844   0.27568   0.0455  1.0000  0.0055  -1.5514   0.0000   0.2953
 -23.500  -0.6670   0.27738   0.27462   0.0448  1.0000  0.0055  -1.5528   0.0000   0.2946
 -23.400  -0.6639   0.27632   0.27355   0.0440  1.0000  0.0055  -1.5544   0.0000   0.2939
 -23.300  -0.6608   0.27525   0.27249   0.0433  1.0000  0.0055  -1.5560   0.0000   0.2932
 -23.200  -0.6576   0.27418   0.27142   0.0425  1.0000  0.0055  -1.5577   0.0000   0.2926
 -23.100  -0.6545   0.27311   0.27035   0.0418  1.0000  0.0055  -1.5595   0.0000   0.2919
 -23.000  -0.6514   0.27203   0.26927   0.0410  1.0000  0.0055  -1.5613   0.0000   0.2911
 -22.900  -0.6482   0.27095   0.26818   0.0403  1.0000  0.0055  -1.5633   0.0000   0.2904
 -22.800  -0.6451   0.26986   0.26709   0.0396  1.0000  0.0055  -1.5653   0.0000   0.2897
 -22.700  -0.6420   0.26875   0.26598   0.0388  1.0000  0.0055  -1.5672   0.0000   0.2890
 -22.600  -0.6389   0.26763   0.26484   0.0381  1.0000  0.0056  -1.5689   0.0000   0.2883
 -22.500  -0.6358   0.26649   0.26371   0.0374  1.0000  0.0056  -1.5715   0.0000   0.2876
 -22.400  -0.6328   0.26534   0.26256   0.0367  1.0000  0.0056  -1.5739   0.0000   0.2868
 -22.300  -0.6297   0.26416   0.26138   0.0360  1.0000  0.0056  -1.5757   0.0000   0.2861
 -22.200  -0.6267   0.26296   0.26017   0.0353  1.0000  0.0056  -1.5776   0.0000   0.2854
 -22.100  -0.6237   0.26175   0.25897   0.0346  1.0000  0.0056  -1.5797   0.0000   0.2847
 -22.000  -0.6207   0.26054   0.25775   0.0339  1.0000  0.0056  -1.5818   0.0000   0.2839
 -21.900  -0.6177   0.25932   0.25654   0.0332  1.0000  0.0056  -1.5840   0.0000   0.2832
 -21.800  -0.6147   0.25811   0.25532   0.0325  1.0000  0.0056  -1.5863   0.0000   0.2825
 -21.700  -0.6117   0.25688   0.25410   0.0319  1.0000  0.0056  -1.5887   0.0000   0.2817
 -21.600  -0.6087   0.25566   0.25288   0.0312  1.0000  0.0056  -1.5913   0.0000   0.2810
 -21.500  -0.6057   0.25444   0.25165   0.0305  1.0000  0.0056  -1.5939   0.0000   0.2802
 -21.400  -0.6028   0.25321   0.25042   0.0298  1.0000  0.0056  -1.5966   0.0000   0.2794
 -21.300  -0.5998   0.25197   0.24919   0.0292  1.0000  0.0056  -1.5995   0.0000   0.2787
 -21.200  -0.5968   0.25074   0.24796   0.0285  1.0000  0.0056  -1.6025   0.0000   0.2779
 -21.100  -0.5938   0.24950   0.24672   0.0278  1.0000  0.0056  -1.6056   0.0000   0.2771
 -21.000  -0.5909   0.24826   0.24548   0.0272  1.0000  0.0056  -1.6088   0.0000   0.2763
 -20.900  -0.5879   0.24702   0.24424   0.0265  1.0000  0.0056  -1.6122   0.0000   0.2755
 -20.800  -0.5850   0.24577   0.24299   0.0258  1.0000  0.0056  -1.6157   0.0000   0.2747
 -20.700  -0.5820   0.24452   0.24174   0.0252  1.0000  0.0056  -1.6193   0.0000   0.2739
 -20.600  -0.5791   0.24327   0.24049   0.0245  1.0000  0.0056  -1.6231   0.0000   0.2731
 -20.500  -0.5762   0.24202   0.23924   0.0239  1.0000  0.0056  -1.6270   0.0000   0.2723
 -20.400  -0.5733   0.24076   0.23798   0.0232  1.0000  0.0056  -1.6311   0.0000   0.2714
 -20.300  -0.5703   0.23950   0.23672   0.0226  1.0000  0.0056  -1.6354   0.0000   0.2706
 -20.200  -0.5674   0.23823   0.23546   0.0219  1.0000  0.0056  -1.6397   0.0000   0.2697
 -20.100  -0.5645   0.23696   0.23419   0.0213  1.0000  0.0056  -1.6436   0.0000   0.2689
 -20.000  -0.5616   0.23569   0.23292   0.0207  1.0000  0.0056  -1.6477   0.0000   0.2680
 -19.900  -0.5587   0.23441   0.23164   0.0200  1.0000  0.0056  -1.6519   0.0000   0.2672
 -19.800  -0.5558   0.23313   0.23036   0.0194  1.0000  0.0056  -1.6563   0.0000   0.2663
 -19.700  -0.5530   0.23185   0.22908   0.0188  1.0000  0.0056  -1.6609   0.0000   0.2655
 -19.600  -0.5501   0.23056   0.22780   0.0182  1.0000  0.0056  -1.6657   0.0000   0.2646
 -19.500  -0.5473   0.22928   0.22651   0.0175  1.0000  0.0056  -1.6706   0.0000   0.2637
 -19.400  -0.5444   0.22799   0.22523   0.0169  1.0000  0.0056  -1.6757   0.0000   0.2628
 -19.100  -0.5382   0.22168   0.21894   0.0158  1.0000  0.0059  -1.7748   0.0000   0.2612
 -19.000  -0.5352   0.22038   0.21764   0.0155  1.0000  0.0059  -1.7466   0.0000   0.2608
 -18.900  -0.5322   0.21915   0.21642   0.0151  1.0000  0.0060  -1.7203   0.0000   0.2604
 -18.800  -0.5293   0.21797   0.21524   0.0147  1.0000  0.0060  -1.6952   0.0000   0.2598
 -18.700  -0.5263   0.21681   0.21408   0.0142  1.0000  0.0061  -1.6707   0.0000   0.2592
 -18.600  -0.5234   0.21567   0.21295   0.0138  1.0000  0.0061  -1.6459   0.0000   0.2586
 -18.500  -0.5204   0.21466   0.21192   0.0134  1.0000  0.0062  -1.6055   0.0000   0.2581
 -18.400  -0.5174   0.21350   0.21076   0.0128  1.0000  0.0063  -1.5878   0.0000   0.2574
 -18.300  -0.5145   0.21233   0.20960   0.0123  1.0000  0.0063  -1.5710   0.0000   0.2566
 -18.200  -0.5116   0.21117   0.20844   0.0118  1.0000  0.0064  -1.5553   0.0000   0.2558
 -18.100  -0.5088   0.20999   0.20726   0.0113  1.0000  0.0065  -1.5406   0.0000   0.2550
 -18.000  -0.5059   0.20881   0.20609   0.0108  1.0000  0.0066  -1.5267   0.0000   0.2542
 -17.900  -0.5030   0.20763   0.20490   0.0102  1.0000  0.0066  -1.5138   0.0000   0.2534
 -17.800  -0.5001   0.20643   0.20371   0.0097  1.0000  0.0067  -1.5018   0.0000   0.2525
 -17.700  -0.4973   0.20523   0.20252   0.0092  1.0000  0.0068  -1.4906   0.0000   0.2516
 -17.600  -0.4944   0.20403   0.20131   0.0087  1.0000  0.0069  -1.4804   0.0000   0.2508
 -17.500  -0.4916   0.20281   0.20010   0.0081  1.0000  0.0070  -1.4710   0.0000   0.2499
 -17.400  -0.4888   0.20159   0.19889   0.0076  1.0000  0.0071  -1.4624   0.0000   0.2490
 -17.300  -0.4860   0.20037   0.19766   0.0071  1.0000  0.0072  -1.4548   0.0000   0.2481
 -17.200  -0.4832   0.19913   0.19643   0.0066  1.0000  0.0074  -1.4480   0.0000   0.2471
 -17.100  -0.4804   0.19789   0.19519   0.0061  1.0000  0.0075  -1.4421   0.0000   0.2462
 -17.000  -0.4776   0.19664   0.19394   0.0055  1.0000  0.0076  -1.4370   0.0000   0.2453
 -16.900  -0.4749   0.19539   0.19269   0.0050  1.0000  0.0078  -1.4330   0.0000   0.2443
 -16.800  -0.4721   0.19412   0.19143   0.0045  1.0000  0.0080  -1.4299   0.0000   0.2433
 -16.700  -0.4693   0.19286   0.19017   0.0040  1.0000  0.0081  -1.4280   0.0000   0.2423
 -16.600  -0.4666   0.19158   0.18890   0.0035  1.0000  0.0083  -1.4275   0.0000   0.2413
 -16.500  -0.4638   0.19030   0.18762   0.0029  1.0000  0.0086  -1.4285   0.0000   0.2403
 -16.400  -0.4610   0.18901   0.18633   0.0024  1.0000  0.0088  -1.4318   0.0000   0.2392
 -16.300  -0.4580   0.18772   0.18505   0.0018  1.0000  0.0091  -1.4384   0.0000   0.2381
 -16.200  -0.4549   0.18647   0.18380   0.0012  1.0000  0.0094  -1.4496   0.0000   0.2368
 -16.100  -0.4516   0.18531   0.18264   0.0005  1.0000  0.0097  -1.4643   0.0000   0.2352
 -16.000  -0.4485   0.18425   0.18158  -0.0003  1.0000  0.0099  -1.4776   0.0000   0.2335
 -15.900  -0.4458   0.18319   0.18052  -0.0011  1.0000  0.0101  -1.4884   0.0000   0.2318
 -15.800  -0.4433   0.18210   0.17943  -0.0018  1.0000  0.0102  -1.4978   0.0000   0.2302
 -15.700  -0.4408   0.18096   0.17830  -0.0025  1.0000  0.0103  -1.5033   0.0000   0.2288
 -15.600  -0.4383   0.17978   0.17713  -0.0031  1.0000  0.0103  -1.5073   0.0000   0.2274
 -15.500  -0.4358   0.17858   0.17593  -0.0037  1.0000  0.0104  -1.5106   0.0000   0.2261
 -15.400  -0.4333   0.17735   0.17470  -0.0042  1.0000  0.0104  -1.5144   0.0000   0.2247
 -15.300  -0.4309   0.17610   0.17345  -0.0048  1.0000  0.0104  -1.5182   0.0000   0.2234
 -15.200  -0.4285   0.17483   0.17219  -0.0054  1.0000  0.0104  -1.5223   0.0000   0.2221
 -15.100  -0.4262   0.17354   0.17091  -0.0059  1.0000  0.0105  -1.5266   0.0000   0.2208
 -15.000  -0.4238   0.17225   0.16961  -0.0064  1.0000  0.0105  -1.5312   0.0000   0.2195
 -14.900  -0.4215   0.17093   0.16830  -0.0070  1.0000  0.0105  -1.5360   0.0000   0.2182
 -14.800  -0.4192   0.16961   0.16699  -0.0075  1.0000  0.0105  -1.5412   0.0000   0.2169
 -14.700  -0.4170   0.16828   0.16566  -0.0081  1.0000  0.0105  -1.5465   0.0000   0.2156
 -14.600  -0.4147   0.16693   0.16432  -0.0086  1.0000  0.0105  -1.5521   0.0000   0.2143
 -14.500  -0.4125   0.16558   0.16297  -0.0091  1.0000  0.0106  -1.5579   0.0000   0.2130
 -14.400  -0.4104   0.16422   0.16161  -0.0096  1.0000  0.0106  -1.5640   0.0000   0.2116
 -14.300  -0.4082   0.16285   0.16024  -0.0101  1.0000  0.0106  -1.5704   0.0000   0.2103
 -14.200  -0.4061   0.16147   0.15887  -0.0106  1.0000  0.0106  -1.5770   0.0000   0.2090
 -14.100  -0.4040   0.16009   0.15749  -0.0112  1.0000  0.0106  -1.5839   0.0000   0.2076
 -14.000  -0.4019   0.15870   0.15611  -0.0117  1.0000  0.0106  -1.5911   0.0000   0.2062
 -13.900  -0.3998   0.15730   0.15472  -0.0122  1.0000  0.0106  -1.5986   0.0000   0.2049
 -13.800  -0.3978   0.15590   0.15331  -0.0127  1.0000  0.0106  -1.6063   0.0000   0.2035
 -13.700  -0.3958   0.15448   0.15190  -0.0132  1.0000  0.0106  -1.6143   0.0000   0.2021
 -13.600  -0.4053   0.14845   0.14590  -0.0140  1.0000  0.0113  -1.8732   0.0000   0.2009
 -13.500  -0.4036   0.14686   0.14431  -0.0143  1.0000  0.0114  -1.8636   0.0000   0.2001
 -13.400  -0.4004   0.14555   0.14301  -0.0143  1.0000  0.0116  -1.8290   0.0000   0.1997
 -13.300  -0.3973   0.14430   0.14177  -0.0145  1.0000  0.0117  -1.7962   0.0000   0.1992
 -13.200  -0.3944   0.14309   0.14056  -0.0146  1.0000  0.0118  -1.7666   0.0000   0.1985
 -13.100  -0.3916   0.14188   0.13935  -0.0149  1.0000  0.0119  -1.7398   0.0000   0.1977
 -13.000  -0.3890   0.14067   0.13815  -0.0151  1.0000  0.0121  -1.7156   0.0000   0.1969
 -12.900  -0.3865   0.13946   0.13695  -0.0154  1.0000  0.0122  -1.6936   0.0000   0.1960
 -12.800  -0.3840   0.13825   0.13574  -0.0157  1.0000  0.0123  -1.6736   0.0000   0.1950
 -12.700  -0.3817   0.13703   0.13452  -0.0161  1.0000  0.0125  -1.6557   0.0000   0.1939
 -12.600  -0.3794   0.13579   0.13330  -0.0164  1.0000  0.0126  -1.6395   0.0000   0.1928
 -12.500  -0.3772   0.13455   0.13206  -0.0168  1.0000  0.0128  -1.6251   0.0000   0.1917
 -12.400  -0.3751   0.13330   0.13081  -0.0172  1.0000  0.0129  -1.6124   0.0000   0.1905
 -12.300  -0.3730   0.13204   0.12956  -0.0175  1.0000  0.0131  -1.6013   0.0000   0.1893
 -12.200  -0.3710   0.13076   0.12829  -0.0179  1.0000  0.0133  -1.5916   0.0000   0.1880
 -12.100  -0.3691   0.12948   0.12701  -0.0184  1.0000  0.0135  -1.5835   0.0000   0.1867
 -12.000  -0.3672   0.12818   0.12572  -0.0188  1.0000  0.0137  -1.5770   0.0000   0.1854
 -11.900  -0.3654   0.12687   0.12442  -0.0192  1.0000  0.0139  -1.5721   0.0000   0.1841
 -11.800  -0.3637   0.12554   0.12310  -0.0196  1.0000  0.0140  -1.5698   0.0000   0.1827
 -11.700  -0.3623   0.12411   0.12163  -0.0201  1.0000  0.0141  -1.5776   0.0000   0.1813
 -11.600  -0.3606   0.12278   0.12032  -0.0206  1.0000  0.0143  -1.5741   0.0000   0.1799
 -11.500  -0.3589   0.12144   0.11898  -0.0210  1.0000  0.0146  -1.5717   0.0000   0.1784
 -11.400  -0.3574   0.11999   0.11755  -0.0215  1.0000  0.0147  -1.5782   0.0000   0.1768
 -11.300  -0.3560   0.11855   0.11611  -0.0220  1.0000  0.0148  -1.5850   0.0000   0.1753
 -11.200  -0.3547   0.11710   0.11466  -0.0225  1.0000  0.0148  -1.5921   0.0000   0.1737
 -11.100  -0.3534   0.11564   0.11322  -0.0230  1.0000  0.0149  -1.5996   0.0000   0.1721
 -11.000  -0.3521   0.11419   0.11177  -0.0235  1.0000  0.0150  -1.6074   0.0000   0.1705
 -10.900  -0.3509   0.11273   0.11032  -0.0240  1.0000  0.0151  -1.6156   0.0000   0.1689
 -10.800  -0.3498   0.11127   0.10887  -0.0246  1.0000  0.0152  -1.6243   0.0000   0.1673
 -10.700  -0.3487   0.10980   0.10741  -0.0251  1.0000  0.0154  -1.6333   0.0000   0.1657
 -10.600  -0.3477   0.10834   0.10595  -0.0256  1.0000  0.0155  -1.6428   0.0000   0.1641
 -10.500  -0.3468   0.10687   0.10449  -0.0261  1.0000  0.0156  -1.6528   0.0000   0.1625
 -10.400  -0.3460   0.10540   0.10303  -0.0267  1.0000  0.0157  -1.6634   0.0000   0.1608
 -10.300  -0.3452   0.10392   0.10156  -0.0272  1.0000  0.0158  -1.6744   0.0000   0.1592
 -10.200  -0.3445   0.10242   0.10008  -0.0278  1.0000  0.0159  -1.6860   0.0000   0.1575
 -10.100  -0.3438   0.10092   0.09858  -0.0284  1.0000  0.0160  -1.6981   0.0000   0.1558
 -10.000  -0.3432   0.09941   0.09708  -0.0289  1.0000  0.0162  -1.7109   0.0000   0.1541
  -9.900  -0.3427   0.09789   0.09557  -0.0295  1.0000  0.0163  -1.7244   0.0000   0.1523
  -9.800  -0.3423   0.09636   0.09406  -0.0301  1.0000  0.0164  -1.7387   0.0000   0.1506
  -9.700  -0.3421   0.09483   0.09253  -0.0307  1.0000  0.0166  -1.7538   0.0000   0.1489
  -9.600  -0.3419   0.09329   0.09101  -0.0314  1.0000  0.0167  -1.7697   0.0000   0.1471
  -9.500  -0.3420   0.09174   0.08947  -0.0320  1.0000  0.0168  -1.7866   0.0000   0.1454
  -9.400  -0.3421   0.09018   0.08792  -0.0326  1.0000  0.0170  -1.8045   0.0000   0.1437
  -9.300  -0.3424   0.08860   0.08636  -0.0333  1.0000  0.0171  -1.8235   0.0000   0.1419
  -9.200  -0.3428   0.08700   0.08477  -0.0340  1.0000  0.0172  -1.8436   0.0000   0.1402
  -9.100  -0.3435   0.08538   0.08317  -0.0347  1.0000  0.0174  -1.8652   0.0000   0.1384
  -9.000  -0.3443   0.08375   0.08155  -0.0355  1.0000  0.0175  -1.8880   0.0000   0.1366
  -8.900  -0.3454   0.08211   0.07992  -0.0363  1.0000  0.0176  -1.9124   0.0000   0.1349
  -8.800  -0.3468   0.08044   0.07827  -0.0371  1.0000  0.0177  -1.9385   0.0000   0.1332
  -8.700  -0.3485   0.07875   0.07660  -0.0379  1.0000  0.0179  -1.9665   0.0000   0.1315
  -8.600  -0.3506   0.07702   0.07488  -0.0388  1.0000  0.0180  -1.9967   0.0000   0.1297
  -8.500  -0.3532   0.07526   0.07314  -0.0398  1.0000  0.0181  -2.0289   0.0000   0.1280
  -8.400  -0.3565   0.07347   0.07138  -0.0408  1.0000  0.0181  -2.0638   0.0000   0.1264
  -8.300  -0.3606   0.07164   0.06957  -0.0420  1.0000  0.0181  -2.1015   0.0000   0.1247
  -8.200  -0.3586   0.06817   0.06611  -0.0474  0.9981  0.0182  -2.1638   0.0000   0.1090
  -8.100  -0.3628   0.06525   0.06318  -0.0514  0.9781  0.0181  -2.2260   0.0000   0.0998
  -8.000  -0.3605   0.06206   0.05993  -0.0557  0.9633  0.0182  -2.2866   0.0000   0.0870
  -7.900  -0.3515   0.05816   0.05592  -0.0614  0.9536  0.0185  -2.3558   0.0000   0.0668
  -7.800  -0.3399   0.05436   0.05200  -0.0666  0.9416  0.0191  -2.4318   0.0000   0.0451
  -7.700  -0.3206   0.05178   0.04925  -0.0708  0.9285  0.0201  -2.4770   0.0000   0.0198
  -7.600  -0.3091   0.04954   0.04683  -0.0735  0.9097  0.0203  -2.4948   0.0000   0.0026
  -7.500  -0.3060   0.04800   0.04512  -0.0738  0.8838  0.0203  -2.5105   0.0000  -0.0008
  -7.300  -0.3824   0.03073   0.02673  -0.0640  0.8388  0.0117  -3.8638   0.0000   0.0737
  -7.200  -0.3772   0.03066   0.02662  -0.0636  0.8270  0.0121  -3.7324   0.0000   0.0726
  -7.100  -0.3708   0.03064   0.02653  -0.0632  0.8161  0.0125  -3.6125   0.0000   0.0709
  -7.000  -0.3637   0.03067   0.02651  -0.0629  0.8073  0.0128  -3.4907   0.0000   0.0684
  -6.900  -0.3554   0.03082   0.02662  -0.0628  0.8001  0.0131  -3.3594   0.0000   0.0647
  -6.800  -0.3447   0.02876   0.02433  -0.0611  0.7939  0.0105  -3.5333   0.0000   0.0640
  -6.700  -0.3351   0.02890   0.02440  -0.0608  0.7866  0.0106  -3.4172   0.0000   0.0598
  -6.600  -0.3643   0.01944   0.01379  -0.0546  0.7819  0.0121  -4.0973   0.0000   0.0913
  -6.400  -0.3476   0.01871   0.01287  -0.0538  0.7688  0.0127  -3.9095   0.0000   0.0864
  -6.300  -0.3382   0.01866   0.01280  -0.0537  0.7650  0.0131  -3.7881   0.0000   0.0824
  -6.200  -0.3286   0.01864   0.01277  -0.0536  0.7607  0.0136  -3.6666   0.0000   0.0782
  -6.100  -0.3190   0.01862   0.01272  -0.0534  0.7562  0.0141  -3.5483   0.0000   0.0738
  -6.000  -0.3095   0.01858   0.01264  -0.0532  0.7516  0.0146  -3.4347   0.0000   0.0692
  -5.900  -0.2999   0.01852   0.01255  -0.0530  0.7471  0.0152  -3.3234   0.0000   0.0643
  -5.800  -0.2904   0.01842   0.01239  -0.0528  0.7426  0.0159  -3.2185   0.0000   0.0592
  -5.700  -0.2809   0.01828   0.01219  -0.0526  0.7381  0.0165  -3.1185   0.0000   0.0537
  -5.600  -0.2713   0.01811   0.01196  -0.0524  0.7334  0.0171  -3.0217   0.0000   0.0478
  -5.500  -0.2614   0.01793   0.01172  -0.0522  0.7296  0.0177  -2.9263   0.0000   0.0410
  -5.400  -0.2513   0.01772   0.01149  -0.0521  0.7278  0.0182  -2.8432   0.0000   0.0335
  -5.300  -0.2412   0.01757   0.01130  -0.0519  0.7259  0.0187  -2.7688   0.0000   0.0252
  -5.200  -0.2308   0.01754   0.01124  -0.0518  0.7236  0.0193  -2.6839   0.0000   0.0158
  -5.100  -0.2215   0.02073   0.01443  -0.0526  0.7206  0.0313  -2.3590   0.0000   0.0029
  -5.000  -0.2112   0.02056   0.01422  -0.0524  0.7180  0.0311  -2.2738   0.0000  -0.0078
  -4.900  -0.2009   0.02040   0.01402  -0.0522  0.7154  0.0310  -2.1877   0.0000  -0.0198
  -4.800  -0.1906   0.02026   0.01383  -0.0520  0.7127  0.0309  -2.1013   0.0000  -0.0331
  -4.700  -0.1811   0.01964   0.01314  -0.0518  0.7101  0.0309  -2.0458   0.0000  -0.0461
  -4.600  -0.1721   0.01871   0.01210  -0.0514  0.7075  0.0311  -2.0345   0.0000  -0.0595
  -4.500  -0.1627   0.01789   0.01119  -0.0511  0.7048  0.0313  -2.0171   0.0000  -0.0754
  -4.400  -0.1528   0.01736   0.01059  -0.0509  0.7020  0.0314  -1.9883   0.0000  -0.0946
  -4.300  -0.1425   0.01714   0.01031  -0.0507  0.6989  0.0312  -1.9480   0.0000  -0.1179
  -4.200  -0.1319   0.01624   0.00943  -0.0506  0.6957  0.0295  -1.9403   0.0000  -0.1462
  -4.100  -0.1218   0.01557   0.00869  -0.0504  0.6922  0.0288  -1.9277   0.0000  -0.1768
  -4.000  -0.1115   0.01505   0.00812  -0.0502  0.6896  0.0282  -1.9086   0.0000  -0.2141
  -3.900  -0.1012   0.01457   0.00761  -0.0500  0.6884  0.0277  -1.8872   0.0000  -0.2590
  -3.800  -0.0909   0.01413   0.00714  -0.0497  0.6869  0.0272  -1.8645   0.0000  -0.3136
  -3.700  -0.0807   0.01373   0.00672  -0.0495  0.6852  0.0267  -1.8408   0.0000  -0.3814
  -3.600  -0.0706   0.01336   0.00633  -0.0493  0.6834  0.0263  -1.8161   0.0000  -0.4674
  -3.500  -0.0606   0.01303   0.00597  -0.0490  0.6814  0.0260  -1.7904   0.0000  -0.5806
  -3.400  -0.0507   0.01272   0.00564  -0.0487  0.6794  0.0257  -1.7631   0.0000  -0.7364
  -3.300  -0.0409   0.01244   0.00534  -0.0484  0.6774  0.0254  -1.7339   0.0000  -0.9655
  -3.200  -0.0311   0.01218   0.00506  -0.0481  0.6752  0.0252  -1.7036   0.0000  -1.3366
  -3.100  -0.0213   0.01195   0.00480  -0.0479  0.6730  0.0250  -1.6721   0.0000  -2.0457
  -3.000  -0.0116   0.01174   0.00456  -0.0476  0.6708  0.0249  -1.6395   0.0000  -3.9479
  -2.900  -0.0018   0.01154   0.00434  -0.0473  0.6685  0.0248  -1.6058   0.0000  -26.2994
  -2.800   0.0080   0.01137   0.00413  -0.0470  0.6662  0.0248  -1.5712   0.0000   6.2661
  -2.700   0.0178   0.01121   0.00394  -0.0468  0.6636  0.0248  -1.5359   0.0000   2.9289
  -2.600   0.0277   0.01107   0.00376  -0.0465  0.6608  0.0248  -1.4998   0.0000   1.9621
  -2.500   0.0377   0.01095   0.00360  -0.0463  0.6575  0.0249  -1.4632   0.0000   1.5014
  -2.400   0.0478   0.01085   0.00347  -0.0461  0.6538  0.0251  -1.4261   0.0000   1.2316
  -2.300   0.0581   0.01076   0.00335  -0.0460  0.6499  0.0253  -1.3886   0.0000   1.0544
  -2.200   0.0685   0.01063   0.00320  -0.0459  0.6489  0.0256  -1.3512   0.0000   0.9299
  -2.100   0.0789   0.01050   0.00307  -0.0457  0.6475  0.0261  -1.3140   0.0000   0.8377
  -2.000   0.0894   0.01039   0.00294  -0.0456  0.6460  0.0268  -1.2777   0.0000   0.7668
  -1.900   0.0999   0.01028   0.00282  -0.0454  0.6443  0.0279  -1.2430   0.0000   0.7106
  -1.800   0.1105   0.01019   0.00271  -0.0453  0.6425  0.0295  -1.2106   0.0000   0.6649
  -1.700   0.1207   0.01001   0.00255  -0.0451  0.6407  0.0373  -1.2003   0.0000   0.6275
  -1.600   0.1285   0.00949   0.00237  -0.0446  0.6388  0.1286  -1.1909   0.0000   0.6007
  -1.500   0.1365   0.00906   0.00228  -0.0443  0.6368  0.2273  -1.1507   0.0000   0.5774
  -1.400   0.1443   0.00863   0.00219  -0.0439  0.6348  0.3261  -1.1078   0.0000   0.5568
  -1.300   0.1508   0.00814   0.00216  -0.0433  0.6327  0.4580  -1.0665   0.0000   0.5391
  -1.200   0.1597   0.00795   0.00216  -0.0429  0.6305  0.5204  -1.0188   0.0000   0.5205
  -1.100   0.1695   0.00787   0.00215  -0.0427  0.6282  0.5479  -0.9685   0.0000   0.5032
  -0.900   0.1892   0.00773   0.00214  -0.0423  0.6234  0.5990  -0.8686   0.0000   0.4738
  -0.800   0.1988   0.00767   0.00214  -0.0420  0.6207  0.6242  -0.8195   0.0000   0.4613
  -0.700   0.2087   0.00763   0.00214  -0.0417  0.6175  0.6470  -0.7705   0.0000   0.4499
  -0.600   0.2185   0.00760   0.00216  -0.0415  0.6137  0.6662  -0.7221   0.0000   0.4395
  -0.500   0.2287   0.00760   0.00220  -0.0413  0.6099  0.6854  -0.6733   0.0000   0.4301
  -0.400   0.2384   0.00750   0.00219  -0.0410  0.6088  0.7082  -0.6498   0.0000   0.4212
  -0.300   0.2478   0.00740   0.00219  -0.0406  0.6075  0.7365  -0.6577   0.0000   0.4129
  -0.200   0.2572   0.00730   0.00220  -0.0402  0.6059  0.7693  -0.6655   0.0000   0.4051
  -0.100   0.2661   0.00718   0.00222  -0.0396  0.6041  0.8036  -0.6732   0.0000   0.3975
   0.000   0.2754   0.00708   0.00225  -0.0390  0.6022  0.8418  -0.6810   0.0000   0.3903
   0.100   0.2859   0.00702   0.00230  -0.0387  0.6001  0.8800  -0.6896   0.0000   0.3838
   0.200   0.3015   0.00700   0.00236  -0.0394  0.5979  0.9140  -0.7008   0.0000   0.3791
   0.300   0.3204   0.00703   0.00241  -0.0409  0.5954  0.9365  -0.7140   0.0000   0.3760
   0.400   0.3410   0.00707   0.00244  -0.0429  0.5927  0.9473  -0.7291   0.0000   0.3739
   0.500   0.3546   0.00711   0.00246  -0.0434  0.5901  0.9559  -0.7401   0.0000   0.3703
   0.600   0.3731   0.00715   0.00247  -0.0450  0.5873  0.9587  -0.7539   0.0000   0.3684
   0.700   0.3904   0.00718   0.00248  -0.0464  0.5844  0.9612  -0.7671   0.0000   0.3665
   0.800   0.4067   0.00723   0.00249  -0.0475  0.5814  0.9640  -0.7798   0.0000   0.3644
   0.900   0.4225   0.00728   0.00251  -0.0485  0.5779  0.9671  -0.7922   0.0000   0.3624
   1.000   0.4377   0.00736   0.00254  -0.0494  0.5737  0.9704  -0.8041   0.0000   0.3604
   1.100   0.4522   0.00744   0.00259  -0.0502  0.5697  0.9737  -0.8157   0.0000   0.3583
   1.200   0.4657   0.00745   0.00260  -0.0507  0.5683  0.9771  -0.8269   0.0000   0.3561
   1.300   0.4780   0.00747   0.00263  -0.0510  0.5664  0.9802  -0.8379   0.0000   0.3538
   1.400   0.4947   0.00747   0.00262  -0.0522  0.5638  0.9817  -0.8520   0.0000   0.3526
   1.500   0.5112   0.00746   0.00261  -0.0535  0.5607  0.9833  -0.8660   0.0000   0.3515
   1.600   0.5277   0.00746   0.00260  -0.0547  0.5572  0.9852  -0.8799   0.0000   0.3504
   1.700   0.5440   0.00747   0.00259  -0.0559  0.5531  0.9872  -0.8939   0.0000   0.3494
   1.800   0.5605   0.00749   0.00257  -0.0571  0.5482  0.9895  -0.9080   0.0000   0.3484
   1.900   0.5771   0.00752   0.00258  -0.0583  0.5450  0.9917  -0.9221   0.0000   0.3476
   2.000   0.5935   0.00755   0.00257  -0.0595  0.5402  0.9939  -0.9363   0.0000   0.3467
   2.100   0.6099   0.00762   0.00258  -0.0607  0.5341  0.9959  -0.9532   0.0000   0.3459
   2.200   0.6263   0.00766   0.00259  -0.0619  0.5292  0.9976  -0.9705   0.0000   0.3452
   2.300   0.6430   0.00765   0.00259  -0.0632  0.5264  0.9989  -0.9887   0.0000   0.3445
   2.400   0.6593   0.00765   0.00259  -0.0644  0.5226  1.0000  -1.0091   0.0000   0.3437
   2.500   0.6677   0.00765   0.00258  -0.0639  0.5186  1.0000  -1.0232   0.0000   0.3417
   2.600   0.6760   0.00766   0.00257  -0.0634  0.5141  1.0000  -1.0372   0.0000   0.3397
   2.700   0.6843   0.00768   0.00256  -0.0629  0.5091  1.0000  -1.0512   0.0000   0.3377
   2.800   0.6924   0.00771   0.00255  -0.0623  0.5037  1.0000  -1.0651   0.0000   0.3357
   2.900   0.7003   0.00776   0.00255  -0.0617  0.4975  1.0000  -1.0789   0.0000   0.3337
   3.000   0.7082   0.00783   0.00257  -0.0612  0.4901  1.0000  -1.0926   0.0000   0.3318
   3.100   0.7173   0.00783   0.00258  -0.0608  0.4872  1.0000  -1.1074   0.0000   0.3301
   3.200   0.7262   0.00785   0.00259  -0.0604  0.4832  1.0000  -1.1222   0.0000   0.3284
   3.300   0.7350   0.00787   0.00261  -0.0600  0.4782  1.0000  -1.1368   0.0000   0.3268
   3.400   0.7436   0.00791   0.00262  -0.0595  0.4724  1.0000  -1.1514   0.0000   0.3251
   3.500   0.7520   0.00797   0.00263  -0.0590  0.4664  1.0000  -1.1658   0.0000   0.3234
   3.600   0.7602   0.00803   0.00265  -0.0585  0.4602  1.0000  -1.1801   0.0000   0.3218
   3.700   0.7685   0.00811   0.00269  -0.0580  0.4538  1.0000  -1.1943   0.0000   0.3202
   3.800   0.7773   0.00817   0.00273  -0.0576  0.4494  1.0000  -1.2131   0.0000   0.3187
   3.900   0.7866   0.00819   0.00277  -0.0573  0.4474  1.0000  -1.2407   0.0000   0.3173
   4.000   0.7960   0.00822   0.00280  -0.0569  0.4448  1.0000  -1.2874   0.0000   0.3160
   4.100   0.8052   0.00825   0.00284  -0.0566  0.4415  1.0000  -1.3345   0.0000   0.3146
   4.200   0.8144   0.00830   0.00288  -0.0563  0.4377  1.0000  -1.3818   0.0000   0.3133
   4.300   0.8235   0.00835   0.00292  -0.0559  0.4334  1.0000  -1.4293   0.0000   0.3120
   4.400   0.8325   0.00840   0.00296  -0.0555  0.4287  1.0000  -1.4770   0.0000   0.3107
   4.500   0.8413   0.00847   0.00300  -0.0551  0.4235  1.0000  -1.5247   0.0000   0.3094
   4.600   0.8498   0.00856   0.00305  -0.0546  0.4178  1.0000  -1.5722   0.0000   0.3080
   4.700   0.8583   0.00865   0.00311  -0.0541  0.4114  1.0000  -1.6198   0.0000   0.3067
   4.800   0.8675   0.00870   0.00316  -0.0538  0.4077  1.0000  -1.6699   0.0000   0.3056
   4.900   0.8768   0.00876   0.00321  -0.0535  0.4039  1.0000  -1.7205   0.0000   0.3044
   5.000   0.8859   0.00882   0.00326  -0.0531  0.3991  1.0000  -1.7711   0.0000   0.3033
   5.100   0.8947   0.00890   0.00332  -0.0527  0.3936  1.0000  -1.8215   0.0000   0.3021
   5.200   0.9033   0.00899   0.00338  -0.0523  0.3872  1.0000  -1.8715   0.0000   0.3010
   5.300   0.9114   0.00911   0.00345  -0.0517  0.3800  1.0000  -1.9209   0.0000   0.2998
   5.400   0.9196   0.00923   0.00353  -0.0512  0.3719  1.0000  -1.9705   0.0000   0.2986
   5.500   0.9289   0.00929   0.00359  -0.0509  0.3679  1.0000  -2.0238   0.0000   0.2976
   5.600   0.9384   0.00934   0.00366  -0.0506  0.3641  1.0000  -2.0777   0.0000   0.2966
   5.700   0.9477   0.00941   0.00372  -0.0503  0.3594  1.0000  -2.1316   0.0000   0.2956
   5.800   0.9567   0.00949   0.00379  -0.0499  0.3534  1.0000  -2.1850   0.0000   0.2946
   5.900   0.9649   0.00963   0.00409  -0.0494  0.3443  1.0000  -2.2654   0.0000   0.2934
   6.000   0.9676   0.01009   0.00428  -0.0480  0.3010  1.0000  -2.3107   0.0000   0.2917
   6.100   0.9687   0.01066   0.00455  -0.0464  0.2540  1.0000  -2.3472   0.0000   0.2900
   6.200   0.9706   0.01122   0.00485  -0.0450  0.2122  1.0000  -2.3838   0.0000   0.2883
   6.300   0.9736   0.01170   0.00514  -0.0438  0.1860  1.0000  -2.4228   0.0000   0.2867
   6.400   0.9780   0.01208   0.00540  -0.0427  0.1649  1.0000  -2.4651   0.0000   0.2853
   6.500   0.9809   0.01256   0.00570  -0.0415  0.1366  1.0000  -2.5026   0.0000   0.2838
   6.600   0.9853   0.01293   0.00595  -0.0404  0.1183  1.0000  -2.5437   0.0000   0.2824
   6.700   0.9883   0.01337   0.00625  -0.0392  0.0926  1.0000  -2.5805   0.0000   0.2809
   6.800   0.9912   0.01381   0.00655  -0.0379  0.0724  1.0000  -2.6163   0.0000   0.2794
   6.900   0.9948   0.01420   0.00684  -0.0367  0.0583  1.0000  -2.6540   0.0000   0.2779
   7.000   0.9994   0.01451   0.00709  -0.0356  0.0483  1.0000  -2.6940   0.0000   0.2766
   7.100   1.0017   0.01495   0.00741  -0.0343  0.0307  1.0000  -2.7290   0.0000   0.2750
   7.200   1.0072   0.01519   0.00763  -0.0333  0.0259  1.0000  -2.7722   0.0000   0.2738
   7.300   1.0129   0.01542   0.00783  -0.0325  0.0227  1.0000  -2.8161   0.0000   0.2726
   7.400   1.0193   0.01560   0.00801  -0.0317  0.0205  1.0000  -2.8609   0.0000   0.2715
   7.500   1.0260   0.01576   0.00818  -0.0310  0.0199  1.0000  -2.9100   0.0000   0.2705
   7.600   1.0326   0.01592   0.00835  -0.0302  0.0194  1.0000  -2.9592   0.0000   0.2694
   7.700   1.0390   0.01609   0.00853  -0.0295  0.0190  1.0000  -3.0085   0.0000   0.2684
   7.800   1.0453   0.01625   0.00870  -0.0287  0.0186  1.0000  -3.0579   0.0000   0.2673
   7.900   1.0514   0.01642   0.00888  -0.0279  0.0182  1.0000  -3.1071   0.0000   0.2662
   8.000   1.0573   0.01659   0.00906  -0.0270  0.0179  1.0000  -3.1562   0.0000   0.2652
   8.100   1.0663   0.01661   0.00912  -0.0267  0.0199  1.0000  -3.1784   0.0000   0.2645
   8.200   1.0720   0.01678   0.00931  -0.0258  0.0198  1.0000  -3.2226   0.0000   0.2634
   8.300   1.0766   0.01696   0.00950  -0.0247  0.0196  1.0000  -3.2660   0.0000   0.2621
   8.400   1.0805   0.01713   0.00970  -0.0234  0.0194  1.0000  -3.3084   0.0000   0.2608
   8.500   1.0841   0.01731   0.00989  -0.0222  0.0191  1.0000  -3.3508   0.0000   0.2594
   8.600   1.0877   0.01750   0.01010  -0.0209  0.0189  1.0000  -3.3938   0.0000   0.2580
   8.700   1.0914   0.01769   0.01032  -0.0197  0.0187  1.0000  -3.4376   0.0000   0.2567
   8.800   1.0951   0.01790   0.01054  -0.0186  0.0184  1.0000  -3.4818   0.0000   0.2555
   8.900   1.0987   0.01811   0.01078  -0.0174  0.0182  1.0000  -3.5259   0.0000   0.2542
   9.000   1.1024   0.01834   0.01102  -0.0163  0.0180  1.0000  -3.5706   0.0000   0.2530
   9.100   1.1062   0.01857   0.01128  -0.0152  0.0177  1.0000  -3.6159   0.0000   0.2518
   9.200   1.1098   0.01882   0.01155  -0.0142  0.0175  1.0000  -3.6612   0.0000   0.2507
   9.300   1.1134   0.01908   0.01183  -0.0131  0.0173  1.0000  -3.7068   0.0000   0.2496
   9.400   1.1170   0.01935   0.01212  -0.0121  0.0171  1.0000  -3.7523   0.0000   0.2485
   9.500   1.1205   0.01963   0.01242  -0.0111  0.0168  1.0000  -3.7979   0.0000   0.2474
   9.600   1.1240   0.01993   0.01273  -0.0102  0.0166  1.0000  -3.8440   0.0000   0.2464
   9.700   1.1275   0.02024   0.01306  -0.0093  0.0164  1.0000  -3.8900   0.0000   0.2454
   9.800   1.1309   0.02056   0.01341  -0.0084  0.0162  1.0000  -3.9361   0.0000   0.2444
   9.900   1.1344   0.02090   0.01377  -0.0076  0.0160  1.0000  -3.9827   0.0000   0.2435
  10.000   1.1378   0.02126   0.01415  -0.0068  0.0157  1.0000  -4.0291   0.0000   0.2426
  10.100   1.1411   0.02164   0.01455  -0.0060  0.0155  1.0000  -4.0751   0.0000   0.2418
  10.200   1.1444   0.02203   0.01496  -0.0053  0.0153  1.0000  -4.1217   0.0000   0.2410
  10.300   1.1477   0.02244   0.01539  -0.0046  0.0151  1.0000  -4.1681   0.0000   0.2402
  10.400   1.1508   0.02287   0.01584  -0.0039  0.0149  1.0000  -4.2138   0.0000   0.2394
  10.500   1.1539   0.02332   0.01631  -0.0033  0.0146  1.0000  -4.2596   0.0000   0.2387
  10.600   1.1571   0.02379   0.01680  -0.0027  0.0144  1.0000  -4.3054   0.0000   0.2380
  10.700   1.1600   0.02429   0.01732  -0.0021  0.0142  1.0000  -4.3500   0.0000   0.2373
  10.800   1.1628   0.02481   0.01787  -0.0016  0.0140  1.0000  -4.3944   0.0000   0.2367
  10.900   1.1657   0.02534   0.01843  -0.0011  0.0137  1.0000  -4.4388   0.0000   0.2361
  11.000   1.1683   0.02592   0.01903  -0.0006  0.0135  1.0000  -4.4818   0.0000   0.2355
  11.100   1.1707   0.02653   0.01967  -0.0002  0.0133  1.0000  -4.5233   0.0000   0.2349
  11.200   1.1730   0.02715   0.02032   0.0003  0.0131  1.0000  -4.5647   0.0000   0.2344
  11.300   1.1752   0.02780   0.02099   0.0007  0.0129  1.0000  -4.6053   0.0000   0.2338
  11.400   1.1769   0.02851   0.02173   0.0011  0.0126  1.0000  -4.6433   0.0000   0.2333
  11.500   1.1784   0.02923   0.02249   0.0014  0.0124  1.0000  -4.6804   0.0000   0.2328
  11.600   1.1799   0.02997   0.02326   0.0018  0.0122  1.0000  -4.7169   0.0000   0.2323
  11.900   1.1806   0.03260   0.02602   0.0028  0.0103  1.0000  -4.8878   0.0000   0.2309
  12.000   1.1919   0.03245   0.02584   0.0027  0.0100  1.0000  -5.0378   0.0000   0.2308
  12.100   1.1989   0.03271   0.02609   0.0028  0.0098  1.0000  -5.1418   0.0000   0.2305
  12.200   1.2045   0.03311   0.02649   0.0029  0.0095  1.0000  -5.2321   0.0000   0.2302
  12.300   1.2093   0.03358   0.02696   0.0031  0.0093  1.0000  -5.3152   0.0000   0.2299
  12.400   1.2133   0.03413   0.02753   0.0033  0.0090  1.0000  -5.3921   0.0000   0.2296
  12.500   1.2168   0.03475   0.02816   0.0034  0.0088  1.0000  -5.4653   0.0000   0.2293
  12.600   1.2200   0.03538   0.02880   0.0035  0.0086  1.0000  -5.5375   0.0000   0.2290
  12.700   1.2233   0.03601   0.02945   0.0037  0.0084  1.0000  -5.6103   0.0000   0.2287
  12.800   1.2266   0.03665   0.03010   0.0038  0.0082  1.0000  -5.6837   0.0000   0.2284
  12.900   1.2297   0.03729   0.03075   0.0040  0.0080  1.0000  -5.7573   0.0000   0.2281
  13.000   1.2326   0.03796   0.03143   0.0041  0.0078  1.0000  -5.8302   0.0000   0.2277
  13.100   1.2346   0.03873   0.03222   0.0043  0.0076  1.0000  -5.8974   0.0000   0.2274
  13.200   1.2361   0.03954   0.03305   0.0044  0.0075  1.0000  -5.9620   0.0000   0.2272
  13.300   1.2377   0.04036   0.03389   0.0045  0.0073  1.0000  -6.0263   0.0000   0.2269
  13.400   1.2391   0.04119   0.03473   0.0046  0.0072  1.0000  -6.0900   0.0000   0.2266
  13.500   1.2402   0.04205   0.03560   0.0047  0.0070  1.0000  -6.1514   0.0000   0.2262
  13.600   1.2410   0.04295   0.03653   0.0049  0.0069  1.0000  -6.2098   0.0000   0.2259
  13.700   1.2411   0.04396   0.03756   0.0049  0.0067  1.0000  -6.2615   0.0000   0.2257
  13.800   1.2401   0.04511   0.03874   0.0049  0.0066  1.0000  -6.3052   0.0000   0.2254
  13.900   1.2392   0.04625   0.03991   0.0050  0.0065  1.0000  -6.3491   0.0000   0.2252
  14.000   1.2384   0.04739   0.04109   0.0050  0.0064  1.0000  -6.3921   0.0000   0.2250
  14.100   1.2373   0.04856   0.04230   0.0050  0.0063  1.0000  -6.4328   0.0000   0.2247
  14.200   1.2359   0.04978   0.04356   0.0050  0.0062  1.0000  -6.4702   0.0000   0.2245
  14.300   1.2333   0.05120   0.04503   0.0049  0.0061  1.0000  -6.4978   0.0000   0.2244
  14.400   1.2306   0.05264   0.04652   0.0048  0.0060  1.0000  -6.5241   0.0000   0.2242
  14.500   1.2280   0.05404   0.04796   0.0047  0.0059  1.0000  -6.5511   0.0000   0.2241
  14.600   1.2254   0.05544   0.04941   0.0046  0.0059  1.0000  -6.5767   0.0000   0.2239
  14.700   1.2225   0.05690   0.05092   0.0045  0.0058  1.0000  -6.6000   0.0000   0.2238
  14.800   1.2187   0.05854   0.05261   0.0042  0.0057  1.0000  -6.6160   0.0000   0.2238
  14.900   1.2147   0.06023   0.05436   0.0040  0.0057  1.0000  -6.6291   0.0000   0.2238
  15.000   1.2111   0.06187   0.05605   0.0037  0.0057  1.0000  -6.6443   0.0000   0.2237
  15.100   1.2163   0.06243   0.05663   0.0036  0.0057  1.0000  -6.7026   0.0000   0.2236
  15.200   1.2132   0.06399   0.05825   0.0034  0.0057  1.0000  -6.7212   0.0000   0.2235
  15.300   1.2098   0.06561   0.05993   0.0032  0.0057  1.0000  -6.7367   0.0000   0.2235
  15.400   1.2055   0.06746   0.06183   0.0028  0.0056  1.0000  -6.7443   0.0000   0.2236
  15.500   1.2010   0.06931   0.06374   0.0024  0.0056  1.0000  -6.7508   0.0000   0.2237
  15.600   1.1979   0.07096   0.06541   0.0020  0.0056  1.0000  -6.7665   0.0000   0.2238
  15.700   1.1956   0.07249   0.06698   0.0018  0.0056  1.0000  -6.7889   0.0000   0.2238
  15.800   1.1934   0.07403   0.06856   0.0015  0.0056  1.0000  -6.8113   0.0000   0.2238
  15.900   1.1910   0.07558   0.07016   0.0012  0.0056  1.0000  -6.8320   0.0000   0.2239
  16.000   1.1878   0.07728   0.07190   0.0008  0.0055  1.0000  -6.8466   0.0000   0.2240
  16.100   1.1837   0.07914   0.07382   0.0003  0.0055  1.0000  -6.8541   0.0000   0.2242
  16.200   1.1805   0.08088   0.07560  -0.0002  0.0055  1.0000  -6.8675   0.0000   0.2243
  16.300   1.1776   0.08256   0.07733  -0.0005  0.0055  1.0000  -6.8835   0.0000   0.2244
  16.400   1.1749   0.08423   0.07905  -0.0009  0.0055  1.0000  -6.8996   0.0000   0.2245
  16.500   1.1720   0.08592   0.08078  -0.0013  0.0055  1.0000  -6.9147   0.0000   0.2247
  16.600   1.1689   0.08767   0.08258  -0.0018  0.0055  1.0000  -6.9272   0.0000   0.2248
  16.700   1.1644   0.08971   0.08467  -0.0024  0.0055  1.0000  -6.9278   0.0000   0.2252
  16.800   1.1605   0.09164   0.08665  -0.0030  0.0055  1.0000  -6.9334   0.0000   0.2255
  16.900   1.1573   0.09345   0.08851  -0.0035  0.0055  1.0000  -6.9430   0.0000   0.2257
  17.000   1.1542   0.09523   0.09033  -0.0039  0.0055  1.0000  -6.9536   0.0000   0.2259
  17.100   1.1511   0.09701   0.09215  -0.0044  0.0055  1.0000  -6.9637   0.0000   0.2261
  17.200   1.1478   0.09881   0.09400  -0.0049  0.0055  1.0000  -6.9723   0.0000   0.2263
  17.300   1.1445   0.10065   0.09589  -0.0054  0.0055  1.0000  -6.9792   0.0000   0.2266
  17.400   1.1403   0.10269   0.09799  -0.0061  0.0055  1.0000  -6.9778   0.0000   0.2270
  17.500   1.1353   0.10489   0.10024  -0.0069  0.0055  1.0000  -6.9690   0.0000   0.2275
  17.600   1.1311   0.10689   0.10228  -0.0076  0.0055  1.0000  -6.9670   0.0000   0.2279
  17.700   1.1273   0.10882   0.10426  -0.0082  0.0055  1.0000  -6.9673   0.0000   0.2282
  17.800   1.1236   0.11074   0.10623  -0.0088  0.0055  1.0000  -6.9675   0.0000   0.2286
  17.900   1.1199   0.11268   0.10822  -0.0094  0.0055  1.0000  -6.9672   0.0000   0.2290
  18.000   1.1161   0.11468   0.11027  -0.0100  0.0055  1.0000  -6.9645   0.0000   0.2294
  18.100   1.1118   0.11680   0.11243  -0.0108  0.0055  1.0000  -6.9567   0.0000   0.2299
  18.200   1.1062   0.11923   0.11492  -0.0118  0.0055  1.0000  -6.9354   0.0000   0.2307
  18.300   1.1013   0.12151   0.11725  -0.0127  0.0055  1.0000  -6.9201   0.0000   0.2313
  18.400   1.0970   0.12370   0.11948  -0.0135  0.0055  1.0000  -6.9078   0.0000   0.2319
  18.500   1.0928   0.12588   0.12172  -0.0144  0.0055  1.0000  -6.8958   0.0000   0.2326
  18.600   1.0885   0.12811   0.12400  -0.0153  0.0055  1.0000  -6.8815   0.0000   0.2333
  18.700   1.0837   0.13048   0.12642  -0.0163  0.0055  1.0000  -6.8607   0.0000   0.2341
  18.800   1.0779   0.13312   0.12911  -0.0175  0.0055  1.0000  -6.8285   0.0000   0.2351
  18.900   1.0729   0.13560   0.13164  -0.0186  0.0055  1.0000  -6.8017   0.0000   0.2361
  19.000   1.0682   0.13804   0.13413  -0.0197  0.0055  1.0000  -6.7765   0.0000   0.2370
  19.100   1.0635   0.14052   0.13666  -0.0209  0.0055  1.0000  -6.7491   0.0000   0.2380
  19.200   1.0580   0.14325   0.13945  -0.0222  0.0055  1.0000  -6.7101   0.0000   0.2392
  19.300   1.0524   0.14603   0.14227  -0.0236  0.0055  1.0000  -6.6687   0.0000   0.2405
  19.400   1.0472   0.14870   0.14499  -0.0249  0.0055  1.0000  -6.6292   0.0000   0.2417
  19.500   1.0418   0.15143   0.14777  -0.0263  0.0055  1.0000  -6.5861   0.0000   0.2430
  19.600   1.0359   0.15440   0.15079  -0.0278  0.0055  1.0000  -6.5319   0.0000   0.2445
  19.700   1.0303   0.15731   0.15375  -0.0293  0.0055  1.0000  -6.4793   0.0000   0.2460
  19.800   1.0241   0.16041   0.15691  -0.0310  0.0055  1.0000  -6.4168   0.0000   0.2477
  19.900   1.0183   0.16349   0.16004  -0.0326  0.0055  1.0000  -6.3540   0.0000   0.2494
  20.000   1.0126   0.16660   0.16320  -0.0342  0.0055  1.0000  -6.2892   0.0000   0.2511
  20.100   1.0062   0.16998   0.16662  -0.0360  0.0056  1.0000  -6.2104   0.0000   0.2530
  20.200   1.0003   0.17323   0.16992  -0.0377  0.0056  1.0000  -6.1347   0.0000   0.2549
  20.300   0.9939   0.17670   0.17344  -0.0396  0.0056  1.0000  -6.0468   0.0000   0.2569
  20.400   0.9874   0.18028   0.17707  -0.0415  0.0056  1.0000  -5.9510   0.0000   0.2591
  20.500   0.9809   0.18389   0.18072  -0.0433  0.0056  1.0000  -5.8502   0.0000   0.2613


