xflr5 v6.48

 Calculated polar for: BOEING-VERTOL VR-7 AIRFOIL

 1 1 Reynolds number fixed          Mach number fixed         

 xtrf =   1.000 (top)        1.000 (bottom)
 Mach =   0.000     Re =    10.000 e 6     Ncrit =   9.000

  alpha     CL        CD       CDp       Cm    Top Xtr Bot Xtr   Cpmin    Chinge    XCp    
 ------- -------- --------- --------- -------- ------- ------- -------- --------- ---------
 -18.200  -1.1016   0.07106   0.06993  -0.0397  1.0000  0.0049  -21.0478   0.0000   0.1886
 -18.100  -1.1576   0.05813   0.05684  -0.0492  1.0000  0.0049  -22.2816   0.0000   0.1826
 -18.000  -1.1861   0.05164   0.05025  -0.0543  1.0000  0.0049  -22.8218   0.0000   0.1798
 -17.900  -1.2083   0.04694   0.04546  -0.0577  1.0000  0.0049  -23.1967   0.0000   0.1782
 -17.800  -1.2276   0.04300   0.04144  -0.0605  1.0000  0.0049  -23.4947   0.0000   0.1771
 -17.700  -1.2443   0.03959   0.03795  -0.0627  1.0000  0.0049  -23.7329   0.0000   0.1763
 -17.600  -1.2590   0.03671   0.03499  -0.0645  1.0000  0.0049  -23.9208   0.0000   0.1759
 -17.500  -1.2715   0.03435   0.03256  -0.0655  1.0000  0.0049  -24.0569   0.0000   0.1759
 -17.400  -1.2824   0.03240   0.03054  -0.0660  1.0000  0.0049  -24.1562   0.0000   0.1763
 -17.300  -1.2921   0.03073   0.02881  -0.0662  1.0000  0.0049  -24.2256   0.0000   0.1768
 -17.200  -1.3005   0.02929   0.02731  -0.0660  1.0000  0.0049  -24.2669   0.0000   0.1776
 -17.100  -1.3078   0.02807   0.02603  -0.0654  1.0000  0.0049  -24.2851   0.0000   0.1785
 -17.000  -1.3142   0.02704   0.02494  -0.0646  1.0000  0.0049  -24.2824   0.0000   0.1796
 -16.900  -1.3197   0.02612   0.02396  -0.0637  1.0000  0.0049  -24.2631   0.0000   0.1808
 -16.800  -1.3244   0.02530   0.02310  -0.0625  1.0000  0.0049  -24.2289   0.0000   0.1821
 -16.700  -1.3286   0.02459   0.02234  -0.0612  1.0000  0.0049  -24.1825   0.0000   0.1834
 -16.600  -1.3322   0.02396   0.02166  -0.0598  1.0000  0.0049  -24.1248   0.0000   0.1848
 -16.500  -1.3356   0.02338   0.02104  -0.0581  1.0000  0.0049  -24.0606   0.0000   0.1864
 -16.400  -1.3388   0.02288   0.02050  -0.0564  1.0000  0.0049  -23.9901   0.0000   0.1880
 -16.300  -1.3426   0.02245   0.02003  -0.0543  1.0000  0.0049  -23.9251   0.0000   0.1899
 -16.200  -1.3439   0.02197   0.01951  -0.0527  1.0000  0.0049  -23.8281   0.0000   0.1913
 -16.100  -1.3371   0.02132   0.01881  -0.0528  0.9998  0.0049  -23.6333   0.0000   0.1912
 -16.000  -1.3301   0.02072   0.01817  -0.0528  0.9997  0.0049  -23.4333   0.0000   0.1911
 -15.900  -1.3233   0.02017   0.01757  -0.0528  0.9996  0.0049  -23.2379   0.0000   0.1911
 -15.800  -1.3166   0.01969   0.01705  -0.0526  0.9995  0.0049  -23.0383   0.0000   0.1912
 -15.700  -1.3093   0.01923   0.01655  -0.0525  0.9993  0.0049  -22.8320   0.0000   0.1913
 -15.600  -1.3014   0.01879   0.01607  -0.0525  0.9992  0.0049  -22.6183   0.0000   0.1912
 -15.500  -1.2933   0.01837   0.01562  -0.0525  0.9990  0.0049  -22.4007   0.0000   0.1911
 -15.400  -1.2850   0.01797   0.01519  -0.0525  0.9988  0.0049  -22.1816   0.0000   0.1911
 -15.300  -1.2767   0.01759   0.01477  -0.0525  0.9986  0.0049  -21.9616   0.0000   0.1910
 -15.200  -1.2684   0.01723   0.01438  -0.0524  0.9983  0.0049  -21.7415   0.0000   0.1910
 -15.100  -1.2600   0.01688   0.01401  -0.0523  0.9980  0.0049  -21.5213   0.0000   0.1909
 -15.000  -1.2516   0.01656   0.01366  -0.0522  0.9976  0.0049  -21.3014   0.0000   0.1909
 -14.900  -1.2433   0.01625   0.01332  -0.0520  0.9972  0.0049  -21.0822   0.0000   0.1909
 -14.800  -1.2349   0.01595   0.01299  -0.0519  0.9967  0.0049  -20.8620   0.0000   0.1909
 -14.700  -1.2263   0.01566   0.01268  -0.0518  0.9961  0.0049  -20.6410   0.0000   0.1909
 -14.600  -1.2177   0.01538   0.01238  -0.0516  0.9953  0.0049  -20.4195   0.0000   0.1909
 -14.500  -1.2090   0.01511   0.01209  -0.0515  0.9943  0.0050  -20.1977   0.0000   0.1909
 -14.400  -1.2001   0.01486   0.01181  -0.0513  0.9931  0.0050  -19.9744   0.0000   0.1908
 -14.300  -1.1907   0.01462   0.01155  -0.0513  0.9919  0.0050  -19.7446   0.0000   0.1907
 -14.200  -1.1812   0.01437   0.01128  -0.0513  0.9899  0.0050  -19.5158   0.0000   0.1905
 -14.100  -1.1674   0.01409   0.01097  -0.0522  0.9804  0.0050  -19.2402   0.0000   0.1893
 -14.000  -1.1554   0.01386   0.01067  -0.0527  0.9543  0.0050  -18.9859   0.0000   0.1886
 -13.800  -1.1429   0.01358   0.01025  -0.0512  0.9102  0.0050  -18.6065   0.0000   0.1898
 -13.700  -1.1356   0.01343   0.01003  -0.0506  0.8941  0.0050  -18.4068   0.0000   0.1902
 -13.500  -1.1206   0.01314   0.00962  -0.0495  0.8571  0.0050  -18.0049   0.0000   0.1908
 -13.400  -1.1126   0.01299   0.00941  -0.0491  0.8409  0.0050  -17.7995   0.0000   0.1910
 -13.300  -1.1046   0.01286   0.00922  -0.0487  0.8243  0.0050  -17.5959   0.0000   0.1913
 -13.200  -1.0964   0.01271   0.00902  -0.0483  0.8074  0.0050  -17.3899   0.0000   0.1915
 -13.100  -1.0880   0.01257   0.00883  -0.0479  0.7964  0.0050  -17.1831   0.0000   0.1916
 -13.000  -1.0797   0.01244   0.00865  -0.0475  0.7771  0.0050  -16.9780   0.0000   0.1918
 -12.900  -1.0709   0.01229   0.00846  -0.0472  0.7670  0.0050  -16.7694   0.0000   0.1918
 -12.800  -1.0622   0.01214   0.00829  -0.0469  0.7608  0.0050  -16.5612   0.0000   0.1919
 -12.700  -1.0534   0.01201   0.00811  -0.0466  0.7521  0.0050  -16.3545   0.0000   0.1920
 -12.600  -1.0446   0.01187   0.00793  -0.0463  0.7431  0.0050  -16.1491   0.0000   0.1920
 -12.500  -1.0356   0.01172   0.00776  -0.0461  0.7337  0.0050  -15.9430   0.0000   0.1920
 -12.400  -1.0263   0.01158   0.00759  -0.0458  0.7294  0.0050  -15.7340   0.0000   0.1920
 -12.300  -1.0170   0.01144   0.00743  -0.0456  0.7276  0.0051  -15.5254   0.0000   0.1919
 -12.200  -1.0077   0.01130   0.00728  -0.0454  0.7251  0.0051  -15.3176   0.0000   0.1919
 -12.100  -0.9984   0.01118   0.00713  -0.0452  0.7206  0.0051  -15.1109   0.0000   0.1918
 -12.000  -0.9890   0.01106   0.00698  -0.0450  0.7137  0.0051  -14.9057   0.0000   0.1917
 -11.900  -0.9797   0.01095   0.00684  -0.0447  0.7049  0.0051  -14.7014   0.0000   0.1916
 -11.800  -0.9702   0.01084   0.00670  -0.0446  0.6940  0.0051  -14.4969   0.0000   0.1915
 -11.700  -0.9606   0.01072   0.00656  -0.0444  0.6889  0.0051  -14.2921   0.0000   0.1914
 -11.600  -0.9510   0.01060   0.00642  -0.0442  0.6862  0.0051  -14.0881   0.0000   0.1912
 -11.500  -0.9413   0.01049   0.00629  -0.0440  0.6824  0.0051  -13.8853   0.0000   0.1911
 -11.400  -0.9317   0.01038   0.00616  -0.0439  0.6780  0.0051  -13.6835   0.0000   0.1909
 -11.300  -0.9220   0.01028   0.00603  -0.0437  0.6731  0.0051  -13.4827   0.0000   0.1907
 -11.200  -0.9122   0.01018   0.00591  -0.0435  0.6678  0.0051  -13.2826   0.0000   0.1905
 -11.100  -0.9024   0.01008   0.00578  -0.0434  0.6625  0.0051  -13.0829   0.0000   0.1902
 -11.000  -0.8925   0.00998   0.00566  -0.0433  0.6570  0.0051  -12.8837   0.0000   0.1900
 -10.900  -0.8825   0.00987   0.00555  -0.0431  0.6522  0.0051  -12.6852   0.0000   0.1897
 -10.800  -0.8725   0.00977   0.00543  -0.0430  0.6499  0.0051  -12.4872   0.0000   0.1893
 -10.700  -0.8623   0.00968   0.00533  -0.0430  0.6495  0.0051  -12.2875   0.0000   0.1890
 -10.600  -0.8522   0.00958   0.00522  -0.0428  0.6491  0.0051  -12.0919   0.0000   0.1886
 -10.500  -0.8420   0.00947   0.00511  -0.0427  0.6485  0.0051  -11.8973   0.0000   0.1882
 -10.400  -0.8319   0.00938   0.00500  -0.0427  0.6479  0.0051  -11.7037   0.0000   0.1879
 -10.300  -0.8217   0.00928   0.00490  -0.0426  0.6472  0.0051  -11.5113   0.0000   0.1874
 -10.200  -0.8115   0.00919   0.00480  -0.0425  0.6463  0.0051  -11.3200   0.0000   0.1870
 -10.100  -0.8013   0.00909   0.00470  -0.0424  0.6451  0.0052  -11.1299   0.0000   0.1865
 -10.000  -0.7910   0.00901   0.00460  -0.0423  0.6437  0.0052  -10.9410   0.0000   0.1861
  -9.900  -0.7807   0.00892   0.00450  -0.0422  0.6421  0.0052  -10.7533   0.0000   0.1856
  -9.800  -0.7704   0.00884   0.00441  -0.0421  0.6402  0.0052  -10.5669   0.0000   0.1850
  -9.700  -0.7601   0.00876   0.00431  -0.0421  0.6383  0.0052  -10.3817   0.0000   0.1845
  -9.600  -0.7498   0.00868   0.00422  -0.0420  0.6363  0.0052  -10.1977   0.0000   0.1839
  -9.500  -0.7394   0.00860   0.00413  -0.0419  0.6342  0.0052  -10.0149   0.0000   0.1833
  -9.400  -0.7291   0.00852   0.00404  -0.0419  0.6320  0.0052  -9.8333   0.0000   0.1827
  -9.300  -0.7187   0.00845   0.00396  -0.0418  0.6298  0.0052  -9.6530   0.0000   0.1820
  -9.200  -0.7082   0.00837   0.00387  -0.0417  0.6275  0.0052  -9.4737   0.0000   0.1814
  -9.100  -0.6977   0.00830   0.00379  -0.0417  0.6251  0.0052  -9.2958   0.0000   0.1806
  -9.000  -0.6872   0.00822   0.00370  -0.0417  0.6227  0.0052  -9.1190   0.0000   0.1799
  -8.900  -0.6767   0.00815   0.00362  -0.0416  0.6202  0.0052  -8.9436   0.0000   0.1791
  -8.800  -0.6662   0.00808   0.00354  -0.0416  0.6176  0.0053  -8.7696   0.0000   0.1782
  -8.700  -0.6556   0.00800   0.00346  -0.0415  0.6152  0.0053  -8.5973   0.0000   0.1774
  -8.600  -0.6451   0.00792   0.00336  -0.0415  0.6132  0.0053  -8.4284   0.0000   0.1765
  -8.500  -0.6345   0.00785   0.00329  -0.0414  0.6113  0.0053  -8.2576   0.0000   0.1755
  -8.400  -0.6238   0.00778   0.00322  -0.0414  0.6100  0.0053  -8.0881   0.0000   0.1745
  -8.300  -0.6131   0.00772   0.00315  -0.0414  0.6099  0.0053  -7.9198   0.0000   0.1735
  -8.200  -0.6024   0.00765   0.00308  -0.0414  0.6098  0.0053  -7.7528   0.0000   0.1723
  -8.100  -0.5917   0.00759   0.00302  -0.0414  0.6096  0.0053  -7.5873   0.0000   0.1712
  -8.000  -0.5809   0.00752   0.00295  -0.0414  0.6095  0.0054  -7.4231   0.0000   0.1700
  -7.900  -0.5702   0.00746   0.00289  -0.0414  0.6093  0.0054  -7.2603   0.0000   0.1687
  -7.800  -0.5594   0.00740   0.00282  -0.0414  0.6092  0.0054  -7.0989   0.0000   0.1674
  -7.700  -0.5486   0.00734   0.00276  -0.0414  0.6090  0.0054  -6.9390   0.0000   0.1660
  -7.600  -0.5378   0.00728   0.00270  -0.0414  0.6087  0.0054  -6.7805   0.0000   0.1645
  -7.500  -0.5270   0.00722   0.00264  -0.0414  0.6085  0.0054  -6.6234   0.0000   0.1630
  -7.400  -0.5161   0.00716   0.00259  -0.0414  0.6082  0.0054  -6.4677   0.0000   0.1613
  -7.300  -0.5053   0.00710   0.00253  -0.0414  0.6079  0.0054  -6.3135   0.0000   0.1596
  -7.200  -0.4944   0.00705   0.00247  -0.0414  0.6075  0.0054  -6.1608   0.0000   0.1579
  -7.100  -0.4835   0.00699   0.00242  -0.0414  0.6070  0.0054  -6.0095   0.0000   0.1560
  -7.000  -0.4726   0.00694   0.00236  -0.0414  0.6064  0.0055  -5.8597   0.0000   0.1540
  -6.900  -0.4617   0.00689   0.00231  -0.0414  0.6056  0.0055  -5.7115   0.0000   0.1520
  -6.800  -0.4508   0.00684   0.00226  -0.0414  0.6045  0.0055  -5.5649   0.0000   0.1498
  -6.700  -0.4400   0.00679   0.00221  -0.0415  0.6026  0.0055  -5.4595   0.0000   0.1475
  -6.600  -0.4291   0.00675   0.00216  -0.0415  0.5999  0.0055  -5.3596   0.0000   0.1451
  -6.500  -0.4183   0.00672   0.00211  -0.0415  0.5963  0.0055  -5.2605   0.0000   0.1426
  -6.400  -0.4074   0.00668   0.00206  -0.0415  0.5924  0.0055  -5.1622   0.0000   0.1400
  -6.300  -0.3966   0.00665   0.00202  -0.0415  0.5880  0.0055  -5.0646   0.0000   0.1372
  -6.200  -0.3857   0.00662   0.00197  -0.0415  0.5833  0.0056  -4.9675   0.0000   0.1343
  -6.100  -0.3748   0.00658   0.00193  -0.0415  0.5783  0.0056  -4.8711   0.0000   0.1311
  -6.000  -0.3638   0.00654   0.00189  -0.0415  0.5733  0.0056  -4.7754   0.0000   0.1277
  -5.900  -0.3528   0.00650   0.00184  -0.0415  0.5700  0.0056  -4.6808   0.0000   0.1240
  -5.800  -0.3418   0.00646   0.00179  -0.0416  0.5696  0.0056  -4.5860   0.0000   0.1201
  -5.700  -0.3308   0.00642   0.00175  -0.0416  0.5693  0.0056  -4.4919   0.0000   0.1159
  -5.600  -0.3197   0.00638   0.00171  -0.0417  0.5688  0.0056  -4.3985   0.0000   0.1114
  -5.500  -0.3086   0.00633   0.00167  -0.0417  0.5683  0.0057  -4.3055   0.0000   0.1065
  -5.400  -0.2976   0.00629   0.00163  -0.0417  0.5677  0.0060  -4.2130   0.0000   0.1013
  -5.300  -0.2865   0.00625   0.00160  -0.0418  0.5670  0.0063  -4.1211   0.0000   0.0957
  -5.200  -0.2755   0.00621   0.00156  -0.0418  0.5660  0.0066  -4.0297   0.0000   0.0896
  -5.100  -0.2645   0.00617   0.00152  -0.0418  0.5644  0.0071  -3.9389   0.0000   0.0831
  -5.000  -0.2536   0.00613   0.00148  -0.0418  0.5618  0.0077  -3.8480   0.0000   0.0762
  -4.900  -0.2427   0.00609   0.00145  -0.0419  0.5583  0.0084  -3.7553   0.0000   0.0687
  -4.800  -0.2319   0.00607   0.00143  -0.0419  0.5543  0.0093  -3.6566   0.0000   0.0604
  -1.000   0.1540   0.00002  -0.00355  -0.0319  0.2501  0.0106  -0.4778   0.0000   0.4501
  -0.900   0.1664   0.00002  -0.00364  -0.0326  0.2247  0.0106  -0.4357   0.0000   0.4394
  -0.800   0.1788   0.00002  -0.00373  -0.0333  0.1974  0.0106  -0.3898   0.0000   0.4304
  -0.700   0.1903   0.00002  -0.00378  -0.0338  0.1801  0.0106  -0.3439   0.0000   0.4221
  -0.600   0.2013   0.00002  -0.00381  -0.0342  0.1718  0.0129  -0.3077   0.0000   0.4143
  -0.500   0.2121   0.00002  -0.00383  -0.0345  0.1603  0.0140  -0.3066   0.0000   0.4074
  -0.400   0.2225   0.00002  -0.00383  -0.0347  0.1587  0.0147  -0.3160   0.0000   0.4008
  -0.300   0.2338   0.00002  -0.00387  -0.0351  0.1418  0.0153  -0.3287   0.0000   0.3955
  -0.200   0.2444   0.00002  -0.00389  -0.0354  0.1349  0.0157  -0.3390   0.0000   0.3902
  -0.100   0.2551   0.00002  -0.00391  -0.0357  0.1290  0.0162  -0.3491   0.0000   0.3854
   0.000   0.2656   0.00002  -0.00392  -0.0359  0.1230  0.0166  -0.3587   0.0000   0.3808
   0.100   0.2760   0.00002  -0.00392  -0.0360  0.1199  0.0169  -0.3682   0.0000   0.3765
   0.200   0.2863   0.00002  -0.00392  -0.0362  0.1188  0.0173  -0.3777   0.0000   0.3725
   0.400   0.3334   0.00707   0.00114  -0.0422  0.1185  0.0162  -0.7250   0.0000   0.3744
   0.500   0.3418   0.00735   0.00125  -0.0417  0.0629  0.0164  -0.7342   0.0000   0.3699
   0.600   0.3527   0.00739   0.00127  -0.0417  0.0576  0.0167  -0.7446   0.0000   0.3661
   0.700   0.3636   0.00742   0.00129  -0.0417  0.0534  0.0170  -0.7549   0.0000   0.3624
   0.800   0.3746   0.00743   0.00130  -0.0418  0.0502  0.0172  -0.7654   0.0000   0.3590
   0.900   0.3856   0.00744   0.00131  -0.0418  0.0497  0.0175  -0.7759   0.0000   0.3558
   1.000   0.3960   0.00753   0.00135  -0.0417  0.0340  0.0177  -0.7860   0.0000   0.3526
   1.100   0.4067   0.00758   0.00138  -0.0417  0.0216  0.0179  -0.7962   0.0000   0.3496
   1.200   0.4177   0.00760   0.00140  -0.0417  0.0203  0.0181  -0.8067   0.0000   0.3469
   1.300   0.4287   0.00762   0.00141  -0.0417  0.0200  0.0183  -0.8173   0.0000   0.3443
   1.400   0.4397   0.00763   0.00143  -0.0417  0.0197  0.0185  -0.8278   0.0000   0.3418
   1.500   0.4507   0.00765   0.00144  -0.0418  0.0194  0.0188  -0.8384   0.0000   0.3394
   1.600   0.4617   0.00767   0.00146  -0.0418  0.0191  0.0190  -0.8490   0.0000   0.3372
   1.700   0.4727   0.00769   0.00148  -0.0418  0.0189  0.0192  -0.8596   0.0000   0.3350
   1.800   0.4837   0.00771   0.00150  -0.0418  0.0186  0.0195  -0.8703   0.0000   0.3330
   1.900   0.4946   0.00773   0.00152  -0.0418  0.0183  0.0199  -0.8809   0.0000   0.3310
   2.000   0.5056   0.00775   0.00154  -0.0419  0.0181  0.0205  -0.8916   0.0000   0.3291
   2.200   0.5272   0.00769   0.00158  -0.0418  0.0204  0.0794  -0.9127   0.0000   0.3255
   2.400   0.5497   0.00768   0.00159  -0.0420  0.0303  0.0839  -0.9348   0.0000   0.3223
   2.600   0.5709   0.00758   0.00164  -0.0419  0.0302  0.1635  -0.9609   0.0000   0.3192
   2.800   0.5917   0.00761   0.00172  -0.0418  0.0214  0.2004  -0.9897   0.0000   0.3162
   2.900   0.6025   0.00762   0.00175  -0.0418  0.0204  0.2162  -1.0056   0.0000   0.3148
   3.000   0.6130   0.00758   0.00177  -0.0417  0.0203  0.2470  -1.0214   0.0000   0.3134
   3.100   0.6233   0.00752   0.00180  -0.0416  0.0201  0.2902  -1.0370   0.0000   0.3121
   3.200   0.6338   0.00748   0.00182  -0.0416  0.0199  0.3259  -1.0528   0.0000   0.3108
   3.300   0.6433   0.00733   0.00185  -0.0414  0.0197  0.4100  -1.0679   0.0000   0.3095
   3.500   0.6640   0.00725   0.00191  -0.0413  0.0192  0.4795  -1.0996   0.0000   0.3071
   3.600   0.6741   0.00719   0.00195  -0.0412  0.0189  0.5229  -1.1153   0.0000   0.3059
   3.700   0.6848   0.00721   0.00199  -0.0411  0.0187  0.5356  -1.1316   0.0000   0.3048
   3.800   0.6950   0.00718   0.00202  -0.0410  0.0184  0.5672  -1.1476   0.0000   0.3037
   3.900   0.7052   0.00714   0.00206  -0.0409  0.0181  0.6052  -1.1635   0.0000   0.3026
   4.000   0.7159   0.00717   0.00211  -0.0409  0.0178  0.6167  -1.1799   0.0000   0.3016
   4.100   0.7265   0.00719   0.00214  -0.0409  0.0174  0.6289  -1.1964   0.0000   0.3006
   4.200   0.7371   0.00720   0.00218  -0.0408  0.0171  0.6398  -1.2202   0.0000   0.2996
   4.300   0.7477   0.00723   0.00222  -0.0408  0.0168  0.6481  -1.2697   0.0000   0.2987
   4.400   0.7582   0.00724   0.00226  -0.0407  0.0164  0.6685  -1.3193   0.0000   0.2977
   4.500   0.7686   0.00724   0.00230  -0.0406  0.0160  0.6862  -1.3692   0.0000   0.2968
   4.600   0.7792   0.00728   0.00234  -0.0406  0.0156  0.6946  -1.4203   0.0000   0.2959
   4.700   0.7896   0.00728   0.00238  -0.0405  0.0152  0.7158  -1.4711   0.0000   0.2950
   4.800   0.8000   0.00729   0.00242  -0.0404  0.0147  0.7290  -1.5226   0.0000   0.2941
   4.900   0.8102   0.00729   0.00246  -0.0403  0.0141  0.7556  -1.5740   0.0000   0.2932
   5.000   0.8206   0.00731   0.00250  -0.0402  0.0134  0.7678  -1.6263   0.0000   0.2924
   5.100   0.8312   0.00734   0.00255  -0.0402  0.0124  0.7800  -1.6789   0.0000   0.2916
   5.200   0.8414   0.00735   0.00259  -0.0400  0.0105  0.7990  -1.7238   0.0000   0.2907
   5.300   0.8518   0.00737   0.00263  -0.0399  0.0105  0.8098  -1.7772   0.0000   0.2899
   5.400   0.8618   0.00737   0.00268  -0.0397  0.0105  0.8329  -1.8300   0.0000   0.2891
   5.500   0.8720   0.00739   0.00274  -0.0396  0.0105  0.8466  -1.8838   0.0000   0.2883
   5.700   0.8916   0.00740   0.00283  -0.0392  0.0105  0.8918  -1.9903   0.0000   0.2865
   5.800   0.9011   0.00741   0.00289  -0.0389  0.0105  0.9130  -2.0435   0.0000   0.2856
   5.900   0.9099   0.00740   0.00294  -0.0384  0.0105  0.9372  -2.0951   0.0000   0.2846
   6.000   0.9187   0.00741   0.00300  -0.0379  0.0105  0.9627  -2.1471   0.0000   0.2835
   6.100   0.9326   0.00746   0.00307  -0.0386  0.0105  0.9810  -2.2124   0.0000   0.2835
   6.200   0.9476   0.00765   0.00328  -0.0397  0.0068  0.9882  -2.3237   0.0000   0.2839
   6.300   0.9605   0.00774   0.00335  -0.0402  0.0054  0.9906  -2.3923   0.0000   0.2837
   6.400   0.9729   0.00781   0.00342  -0.0406  0.0053  0.9921  -2.4590   0.0000   0.2835
   6.500   0.9848   0.00788   0.00348  -0.0408  0.0052  0.9933  -2.5248   0.0000   0.2831
   6.600   0.9965   0.00795   0.00354  -0.0411  0.0051  0.9942  -2.5906   0.0000   0.2827
   6.700   1.0082   0.00802   0.00360  -0.0413  0.0050  0.9949  -2.6567   0.0000   0.2823
   6.800   1.0198   0.00809   0.00367  -0.0415  0.0050  0.9956  -2.7232   0.0000   0.2819
   6.900   1.0313   0.00816   0.00373  -0.0417  0.0050  0.9961  -2.7900   0.0000   0.2815
   7.000   1.0428   0.00823   0.00379  -0.0418  0.0049  0.9965  -2.8571   0.0000   0.2811
   7.100   1.0548   0.00831   0.00386  -0.0421  0.0049  0.9971  -2.9266   0.0000   0.2808
   7.200   1.0680   0.00838   0.00393  -0.0427  0.0049  0.9977  -2.9997   0.0000   0.2807
   7.300   1.0815   0.00846   0.00400  -0.0433  0.0049  0.9982  -3.0748   0.0000   0.2807
   7.400   1.0947   0.00854   0.00407  -0.0439  0.0048  0.9985  -3.1495   0.0000   0.2806
   7.500   1.1071   0.00862   0.00414  -0.0443  0.0048  0.9988  -3.2222   0.0000   0.2803
   7.700   1.1311   0.00874   0.00425  -0.0449  0.0052  0.9991  -3.3600   0.0000   0.2797
   7.800   1.1427   0.00882   0.00432  -0.0451  0.0052  0.9992  -3.4321   0.0000   0.2794
   7.900   1.1544   0.00890   0.00439  -0.0453  0.0051  0.9993  -3.5051   0.0000   0.2790
   8.000   1.1661   0.00898   0.00447  -0.0456  0.0051  0.9994  -3.5786   0.0000   0.2787
   8.100   1.1777   0.00906   0.00454  -0.0458  0.0051  0.9995  -3.6526   0.0000   0.2783
   8.200   1.1893   0.00915   0.00462  -0.0460  0.0051  0.9996  -3.7272   0.0000   0.2780
   8.300   1.2009   0.00923   0.00470  -0.0462  0.0050  0.9997  -3.8024   0.0000   0.2777
   8.400   1.2125   0.00932   0.00478  -0.0465  0.0050  0.9997  -3.8780   0.0000   0.2773
   8.500   1.2240   0.00940   0.00486  -0.0467  0.0050  0.9998  -3.9539   0.0000   0.2770
   8.600   1.2354   0.00949   0.00494  -0.0468  0.0050  0.9999  -4.0299   0.0000   0.2766
   8.700   1.2466   0.00958   0.00503  -0.0470  0.0049  0.9999  -4.1059   0.0000   0.2762
   8.800   1.2576   0.00967   0.00511  -0.0471  0.0049  1.0000  -4.1819   0.0000   0.2758
   8.900   1.2680   0.00975   0.00520  -0.0470  0.0049  1.0000  -4.2561   0.0000   0.2753
   9.000   1.2773   0.00984   0.00528  -0.0468  0.0049  1.0000  -4.3271   0.0000   0.2747
   9.100   1.2865   0.00993   0.00537  -0.0465  0.0049  1.0000  -4.3985   0.0000   0.2741
   9.200   1.2958   0.01002   0.00545  -0.0462  0.0048  1.0000  -4.4703   0.0000   0.2734
   9.300   1.3050   0.01011   0.00554  -0.0459  0.0048  1.0000  -4.5424   0.0000   0.2728
   9.400   1.3142   0.01020   0.00563  -0.0456  0.0048  1.0000  -4.6149   0.0000   0.2722
   9.500   1.3234   0.01029   0.00572  -0.0453  0.0048  1.0000  -4.6876   0.0000   0.2715
   9.600   1.3325   0.01038   0.00581  -0.0450  0.0048  1.0000  -4.7607   0.0000   0.2709
   9.700   1.3416   0.01048   0.00590  -0.0447  0.0048  1.0000  -4.8341   0.0000   0.2703
   9.800   1.3506   0.01057   0.00600  -0.0444  0.0047  1.0000  -4.9077   0.0000   0.2697
   9.900   1.3591   0.01070   0.00614  -0.0440  0.0046  1.0000  -4.9840   0.0000   0.2690
  10.000   1.3678   0.01081   0.00625  -0.0436  0.0045  1.0000  -5.0591   0.0000   0.2684
  10.100   1.3766   0.01092   0.00636  -0.0433  0.0045  1.0000  -5.1339   0.0000   0.2678
  10.200   1.3853   0.01102   0.00647  -0.0429  0.0045  1.0000  -5.2088   0.0000   0.2671
  10.300   1.3940   0.01113   0.00658  -0.0425  0.0045  1.0000  -5.2838   0.0000   0.2665
  10.400   1.4026   0.01124   0.00669  -0.0421  0.0044  1.0000  -5.3588   0.0000   0.2659
  10.500   1.4111   0.01135   0.00680  -0.0418  0.0044  1.0000  -5.4340   0.0000   0.2653
  10.600   1.4196   0.01146   0.00691  -0.0414  0.0044  1.0000  -5.5093   0.0000   0.2646
  10.700   1.4280   0.01157   0.00702  -0.0409  0.0044  1.0000  -5.5846   0.0000   0.2640
  10.800   1.4364   0.01169   0.00714  -0.0405  0.0044  1.0000  -5.6601   0.0000   0.2634
  10.900   1.4446   0.01180   0.00726  -0.0401  0.0044  1.0000  -5.7356   0.0000   0.2627
  11.000   1.4528   0.01192   0.00737  -0.0396  0.0044  1.0000  -5.8111   0.0000   0.2621
  11.100   1.4609   0.01204   0.00750  -0.0392  0.0043  1.0000  -5.8866   0.0000   0.2615
  11.200   1.4688   0.01216   0.00762  -0.0387  0.0043  1.0000  -5.9620   0.0000   0.2608
  11.300   1.4767   0.01228   0.00774  -0.0382  0.0043  1.0000  -6.0374   0.0000   0.2602
  11.400   1.4844   0.01240   0.00787  -0.0377  0.0043  1.0000  -6.1128   0.0000   0.2595
  11.500   1.4921   0.01253   0.00800  -0.0372  0.0043  1.0000  -6.1879   0.0000   0.2588
  11.600   1.4996   0.01266   0.00813  -0.0366  0.0043  1.0000  -6.2630   0.0000   0.2582
  11.700   1.5070   0.01279   0.00827  -0.0361  0.0043  1.0000  -6.3381   0.0000   0.2575
  11.800   1.5149   0.01291   0.00839  -0.0356  0.0043  1.0000  -6.4129   0.0000   0.2569
  11.900   1.5222   0.01304   0.00853  -0.0350  0.0043  1.0000  -6.4877   0.0000   0.2562
  12.000   1.5279   0.01318   0.00867  -0.0341  0.0043  1.0000  -6.5564   0.0000   0.2554
  12.100   1.5311   0.01330   0.00880  -0.0327  0.0043  1.0000  -6.6151   0.0000   0.2542
  12.200   1.5347   0.01342   0.00893  -0.0313  0.0043  1.0000  -6.7147   0.0000   0.2531
  12.300   1.5392   0.01356   0.00907  -0.0302  0.0043  1.0000  -6.8277   0.0000   0.2522
  12.400   1.5443   0.01370   0.00922  -0.0292  0.0043  1.0000  -6.9455   0.0000   0.2513
  12.500   1.5496   0.01384   0.00937  -0.0283  0.0043  1.0000  -7.0662   0.0000   0.2505
  12.600   1.5550   0.01400   0.00953  -0.0275  0.0042  1.0000  -7.1872   0.0000   0.2497
  12.700   1.5595   0.01416   0.00971  -0.0265  0.0042  1.0000  -7.3036   0.0000   0.2488
  12.800   1.5643   0.01434   0.00989  -0.0255  0.0042  1.0000  -7.4219   0.0000   0.2479
  12.900   1.5694   0.01451   0.01007  -0.0247  0.0042  1.0000  -7.5439   0.0000   0.2472
  13.000   1.5748   0.01469   0.01026  -0.0239  0.0042  1.0000  -7.6685   0.0000   0.2464
  13.100   1.5798   0.01488   0.01046  -0.0230  0.0042  1.0000  -7.7909   0.0000   0.2456
  13.200   1.5845   0.01508   0.01066  -0.0222  0.0042  1.0000  -7.9115   0.0000   0.2449
  13.300   1.5895   0.01528   0.01088  -0.0214  0.0042  1.0000  -8.0353   0.0000   0.2441
  13.400   1.5943   0.01550   0.01110  -0.0206  0.0042  1.0000  -8.1589   0.0000   0.2434
  13.500   1.5987   0.01573   0.01134  -0.0198  0.0042  1.0000  -8.2792   0.0000   0.2427
  13.600   1.6035   0.01597   0.01159  -0.0190  0.0042  1.0000  -8.4031   0.0000   0.2420
  13.700   1.6085   0.01621   0.01184  -0.0183  0.0042  1.0000  -8.5298   0.0000   0.2413
  13.800   1.6126   0.01648   0.01213  -0.0175  0.0041  1.0000  -8.6500   0.0000   0.2406
  13.900   1.6158   0.01681   0.01248  -0.0167  0.0041  1.0000  -8.7610   0.0000   0.2398
  14.000   1.6203   0.01710   0.01277  -0.0160  0.0041  1.0000  -8.8848   0.0000   0.2392
  14.100   1.6248   0.01739   0.01307  -0.0153  0.0041  1.0000  -9.0101   0.0000   0.2385
  14.200   1.6279   0.01773   0.01343  -0.0145  0.0041  1.0000  -9.1234   0.0000   0.2378
  14.300   1.6315   0.01807   0.01378  -0.0138  0.0041  1.0000  -9.2421   0.0000   0.2372
  14.400   1.6358   0.01840   0.01412  -0.0132  0.0041  1.0000  -9.3668   0.0000   0.2366
  14.500   1.6402   0.01873   0.01446  -0.0126  0.0040  1.0000  -9.4938   0.0000   0.2360
  14.600   1.6432   0.01914   0.01489  -0.0120  0.0040  1.0000  -9.6081   0.0000   0.2353
  14.700   1.6464   0.01956   0.01533  -0.0113  0.0040  1.0000  -9.7251   0.0000   0.2347
  14.800   1.6503   0.01995   0.01573  -0.0108  0.0040  1.0000  -9.8494   0.0000   0.2342
  14.900   1.6545   0.02033   0.01613  -0.0103  0.0040  1.0000  -9.9762   0.0000   0.2336
  15.000   1.6568   0.02085   0.01666  -0.0097  0.0040  1.0000  -10.0865   0.0000   0.2331
  15.100   1.6596   0.02134   0.01717  -0.0092  0.0040  1.0000  -10.2020   0.0000   0.2325
  15.200   1.6632   0.02179   0.01763  -0.0087  0.0040  1.0000  -10.3258   0.0000   0.2320
  15.300   1.6671   0.02223   0.01808  -0.0083  0.0040  1.0000  -10.4521   0.0000   0.2315
  15.400   1.6704   0.02271   0.01858  -0.0078  0.0040  1.0000  -10.5736   0.0000   0.2310
  15.500   1.6714   0.02337   0.01925  -0.0073  0.0040  1.0000  -10.6735   0.0000   0.2305
  15.600   1.6742   0.02390   0.01980  -0.0069  0.0040  1.0000  -10.7911   0.0000   0.2300
  15.700   1.6775   0.02441   0.02032  -0.0065  0.0040  1.0000  -10.9137   0.0000   0.2295
  15.800   1.6808   0.02491   0.02084  -0.0061  0.0040  1.0000  -11.0375   0.0000   0.2290
  15.900   1.6821   0.02561   0.02156  -0.0057  0.0040  1.0000  -11.1431   0.0000   0.2286
  16.000   1.6838   0.02629   0.02226  -0.0054  0.0040  1.0000  -11.2518   0.0000   0.2282
  16.100   1.6866   0.02688   0.02286  -0.0050  0.0040  1.0000  -11.3712   0.0000   0.2277
  16.200   1.6895   0.02745   0.02345  -0.0047  0.0039  1.0000  -11.4929   0.0000   0.2273
  16.300   1.6924   0.02803   0.02404  -0.0044  0.0039  1.0000  -11.6145   0.0000   0.2268
  16.400   1.6920   0.02894   0.02498  -0.0041  0.0039  1.0000  -11.7029   0.0000   0.2264
  16.500   1.6930   0.02973   0.02578  -0.0038  0.0039  1.0000  -11.8059   0.0000   0.2260
  16.600   1.6951   0.03040   0.02647  -0.0035  0.0039  1.0000  -11.9208   0.0000   0.2256
  16.700   1.6974   0.03105   0.02714  -0.0032  0.0039  1.0000  -12.0378   0.0000   0.2252
  16.800   1.6995   0.03172   0.02782  -0.0029  0.0039  1.0000  -12.1544   0.0000   0.2248
  16.900   1.6977   0.03281   0.02894  -0.0027  0.0039  1.0000  -12.2290   0.0000   0.2244
  17.000   1.6976   0.03372   0.02987  -0.0025  0.0039  1.0000  -12.3214   0.0000   0.2240
  17.100   1.6988   0.03446   0.03063  -0.0023  0.0039  1.0000  -12.4289   0.0000   0.2236
  17.200   1.7003   0.03519   0.03137  -0.0020  0.0039  1.0000  -12.5400   0.0000   0.2232
  17.300   1.7019   0.03592   0.03212  -0.0018  0.0039  1.0000  -12.6513   0.0000   0.2229
  17.400   1.7033   0.03668   0.03290  -0.0015  0.0039  1.0000  -12.7612   0.0000   0.2225
  17.500   1.6980   0.03821   0.03447  -0.0015  0.0039  1.0000  -12.7988   0.0000   0.2222
  17.600   1.6981   0.03915   0.03542  -0.0014  0.0039  1.0000  -12.8950   0.0000   0.2219
  17.700   1.6992   0.03999   0.03628  -0.0012  0.0039  1.0000  -13.0021   0.0000   0.2215
  17.800   1.7004   0.04080   0.03711  -0.0010  0.0039  1.0000  -13.1113   0.0000   0.2212
  17.900   1.7016   0.04163   0.03796  -0.0009  0.0039  1.0000  -13.2205   0.0000   0.2208
  18.000   1.7027   0.04249   0.03883  -0.0007  0.0038  1.0000  -13.3277   0.0000   0.2205
  18.100   1.6987   0.04395   0.04032  -0.0008  0.0038  1.0000  -13.3794   0.0000   0.2202
  18.200   1.6953   0.04539   0.04180  -0.0009  0.0038  1.0000  -13.4363   0.0000   0.2200
  18.300   1.6947   0.04647   0.04289  -0.0009  0.0038  1.0000  -13.5237   0.0000   0.2197
  18.400   1.6951   0.04742   0.04387  -0.0008  0.0038  1.0000  -13.6243   0.0000   0.2195
  18.500   1.6958   0.04837   0.04483  -0.0007  0.0038  1.0000  -13.7276   0.0000   0.2192
  18.600   1.6962   0.04934   0.04583  -0.0007  0.0038  1.0000  -13.8285   0.0000   0.2189
  18.700   1.6960   0.05035   0.04686  -0.0007  0.0038  1.0000  -13.9232   0.0000   0.2186
  18.800   1.6860   0.05267   0.04922  -0.0012  0.0038  1.0000  -13.9023   0.0000   0.2186
  18.900   1.6852   0.05382   0.05040  -0.0012  0.0038  1.0000  -13.9888   0.0000   0.2184
  19.000   1.6851   0.05489   0.05148  -0.0013  0.0038  1.0000  -14.0837   0.0000   0.2181
  19.100   1.6851   0.05595   0.05256  -0.0013  0.0038  1.0000  -14.1796   0.0000   0.2179
  19.200   1.6849   0.05703   0.05367  -0.0014  0.0038  1.0000  -14.2740   0.0000   0.2177
  19.300   1.6845   0.05817   0.05482  -0.0015  0.0038  1.0000  -14.3663   0.0000   0.2174
  19.400   1.6737   0.06079   0.05749  -0.0022  0.0038  1.0000  -14.3314   0.0000   0.2176
  19.500   1.6711   0.06225   0.05898  -0.0024  0.0038  1.0000  -14.3964   0.0000   0.2175
  19.600   1.6703   0.06348   0.06022  -0.0026  0.0038  1.0000  -14.4820   0.0000   0.2173
  19.700   1.6699   0.06466   0.06143  -0.0027  0.0038  1.0000  -14.5730   0.0000   0.2171
  19.800   1.6693   0.06586   0.06265  -0.0029  0.0038  1.0000  -14.6622   0.0000   0.2169
  19.900   1.6683   0.06711   0.06392  -0.0031  0.0037  1.0000  -14.7464   0.0000   0.2168
  20.000   1.6667   0.06847   0.06530  -0.0034  0.0037  1.0000  -14.8220   0.0000   0.2167
  20.100   1.6515   0.07183   0.06872  -0.0045  0.0037  1.0000  -14.7277   0.0000   0.2171
  20.200   1.6502   0.07317   0.07008  -0.0048  0.0037  1.0000  -14.8067   0.0000   0.2170
  20.300   1.6493   0.07444   0.07137  -0.0050  0.0037  1.0000  -14.8901   0.0000   0.2168
  20.400   1.6481   0.07570   0.07265  -0.0053  0.0037  1.0000  -14.9713   0.0000   0.2167
  20.500   1.6466   0.07701   0.07398  -0.0055  0.0037  1.0000  -15.0484   0.0000   0.2166
  20.600   1.6446   0.07842   0.07541  -0.0058  0.0037  1.0000  -15.1179   0.0000   0.2165
  20.700   1.6414   0.08001   0.07704  -0.0062  0.0037  1.0000  -15.1723   0.0000   0.2165
  20.900   1.6218   0.08540   0.08251  -0.0081  0.0037  1.0000  -15.1056   0.0000   0.2171
  21.000   1.6196   0.08690   0.08403  -0.0085  0.0037  1.0000  -15.1718   0.0000   0.2171
  21.100   1.6171   0.08845   0.08560  -0.0090  0.0037  1.0000  -15.2336   0.0000   0.2171
  21.200   1.6140   0.09012   0.08729  -0.0095  0.0037  1.0000  -15.2856   0.0000   0.2171
  21.300   1.5924   0.09479   0.09204  -0.0115  0.0037  1.0000  -15.0887   0.0000   0.2181
  21.400   1.5896   0.09645   0.09372  -0.0120  0.0037  1.0000  -15.1428   0.0000   0.2182
  21.500   1.5875   0.09797   0.09527  -0.0125  0.0037  1.0000  -15.2070   0.0000   0.2182
  21.600   1.5855   0.09948   0.09680  -0.0130  0.0037  1.0000  -15.2721   0.0000   0.2183
  21.700   1.5834   0.10101   0.09835  -0.0135  0.0037  1.0000  -15.3363   0.0000   0.2183
  21.800   1.5818   0.10250   0.09985  -0.0140  0.0037  1.0000  -15.4073   0.0000   0.2183
  21.900   1.5786   0.10424   0.10162  -0.0146  0.0037  1.0000  -15.4541   0.0000   0.2185
  22.000   1.5517   0.10979   0.10725  -0.0171  0.0037  1.0000  -15.1659   0.0000   0.2200
  22.100   1.5492   0.11136   0.10884  -0.0177  0.0037  1.0000  -15.2228   0.0000   0.2201
  22.200   1.5473   0.11287   0.11037  -0.0182  0.0037  1.0000  -15.2859   0.0000   0.2202
  22.300   1.5455   0.11438   0.11190  -0.0188  0.0037  1.0000  -15.3501   0.0000   0.2202
  22.400   1.5435   0.11593   0.11347  -0.0194  0.0037  1.0000  -15.4109   0.0000   0.2203
  22.500   1.5410   0.11756   0.11513  -0.0200  0.0037  1.0000  -15.4643   0.0000   0.2205
  22.600   1.5376   0.11935   0.11695  -0.0207  0.0037  1.0000  -15.5045   0.0000   0.2207
  22.700   1.5325   0.12146   0.11908  -0.0216  0.0037  1.0000  -15.5175   0.0000   0.2210
  22.800   1.5102   0.12661   0.12430  -0.0242  0.0037  1.0000  -15.2710   0.0000   0.2227
  22.900   1.5078   0.12829   0.12600  -0.0249  0.0037  1.0000  -15.3207   0.0000   0.2229
  23.000   1.5054   0.12995   0.12768  -0.0256  0.0037  1.0000  -15.3714   0.0000   0.2231
  23.100   1.5029   0.13165   0.12941  -0.0264  0.0036  1.0000  -15.4180   0.0000   0.2233
  23.200   1.4997   0.13346   0.13124  -0.0272  0.0036  1.0000  -15.4548   0.0000   0.2236
  23.300   1.4954   0.13548   0.13328  -0.0282  0.0036  1.0000  -15.4723   0.0000   0.2240
  23.400   1.4748   0.14048   0.13835  -0.0308  0.0036  1.0000  -15.2313   0.0000   0.2259
  23.500   1.4718   0.14230   0.14019  -0.0317  0.0036  1.0000  -15.2660   0.0000   0.2262
  23.600   1.4691   0.14406   0.14197  -0.0326  0.0036  1.0000  -15.3044   0.0000   0.2265
  23.700   1.4662   0.14586   0.14379  -0.0335  0.0036  1.0000  -15.3389   0.0000   0.2269
  23.800   1.4627   0.14777   0.14573  -0.0345  0.0036  1.0000  -15.3625   0.0000   0.2273
  23.900   1.4455   0.15225   0.15027  -0.0369  0.0036  1.0000  -15.1568   0.0000   0.2291
  24.000   1.4405   0.15438   0.15242  -0.0381  0.0036  1.0000  -15.1525   0.0000   0.2297
  24.100   1.4373   0.15620   0.15427  -0.0390  0.0036  1.0000  -15.1764   0.0000   0.2302
  24.200   1.4340   0.15805   0.15614  -0.0400  0.0036  1.0000  -15.1985   0.0000   0.2306
  24.300   1.4302   0.16004   0.15816  -0.0411  0.0036  1.0000  -15.2088   0.0000   0.2312
  24.400   1.4155   0.16417   0.16233  -0.0435  0.0036  1.0000  -15.0276   0.0000   0.2329
  24.500   1.4099   0.16655   0.16474  -0.0449  0.0036  1.0000  -15.0029   0.0000   0.2337
  24.600   1.4047   0.16888   0.16710  -0.0462  0.0036  1.0000  -14.9823   0.0000   0.2346
  25.600   1.3278   0.19891   0.19746  -0.0647  0.0036  1.0000  -14.1385   0.0000   0.2480
  25.700   1.3240   0.20119   0.19977  -0.0662  0.0036  1.0000  -14.1147   0.0000   0.2490
  25.800   1.3191   0.20376   0.20236  -0.0678  0.0036  1.0000  -14.0647   0.0000   0.2502
  25.900   1.3017   0.20937   0.20803  -0.0714  0.0036  1.0000  -13.7345   0.0000   0.2535
  26.000   1.2993   0.21139   0.21007  -0.0727  0.0036  1.0000  -13.7320   0.0000   0.2544
  26.100   1.2969   0.21343   0.21213  -0.0741  0.0036  1.0000  -13.7270   0.0000   0.2552
  26.200   1.2939   0.21563   0.21435  -0.0756  0.0036  1.0000  -13.7065   0.0000   0.2562
  26.300   1.2891   0.21832   0.21707  -0.0773  0.0035  1.0000  -13.6391   0.0000   0.2576
  26.400   1.2724   0.22409   0.22291  -0.0810  0.0035  1.0000  -13.2843   0.0000   0.2613
  26.500   1.2695   0.22637   0.22520  -0.0825  0.0035  1.0000  -13.2530   0.0000   0.2624
  26.600   1.2659   0.22883   0.22769  -0.0842  0.0035  1.0000  -13.2028   0.0000   0.2636


