xflr5 v6.48

 Calculated polar for: BOEING-VERTOL VR-7 AIRFOIL

 1 1 Reynolds number fixed          Mach number fixed         

 xtrf =   1.000 (top)        1.000 (bottom)
 Mach =   0.000     Re =     2.500 e 6     Ncrit =   9.000

  alpha     CL        CD       CDp       Cm    Top Xtr Bot Xtr   Cpmin    Chinge    XCp    
 ------- -------- --------- --------- -------- ------- ------- -------- --------- ---------
  -9.300  -0.6704   0.01433   0.00990  -0.0502  0.7395  0.0054  -8.8091   0.0000   0.1653
  -9.100  -0.6598   0.01280   0.00809  -0.0483  0.7274  0.0054  -8.6693   0.0000   0.1671
  -9.000  -0.6524   0.01234   0.00755  -0.0477  0.7236  0.0054  -8.5565   0.0000   0.1672
  -8.900  -0.6445   0.01196   0.00710  -0.0472  0.7187  0.0055  -8.4348   0.0000   0.1672
  -8.800  -0.6370   0.01155   0.00657  -0.0466  0.7129  0.0055  -8.3237   0.0000   0.1673
  -8.700  -0.6281   0.01134   0.00630  -0.0463  0.7065  0.0055  -8.1813   0.0000   0.1669
  -8.600  -0.6190   0.01116   0.00606  -0.0460  0.6989  0.0055  -8.0368   0.0000   0.1663
  -8.400  -0.6001   0.01080   0.00563  -0.0455  0.6888  0.0056  -7.7420   0.0000   0.1649
  -8.300  -0.5904   0.01064   0.00543  -0.0453  0.6871  0.0056  -7.5929   0.0000   0.1641
  -8.200  -0.5806   0.01048   0.00525  -0.0452  0.6851  0.0056  -7.4437   0.0000   0.1631
  -8.100  -0.5708   0.01034   0.00508  -0.0450  0.6830  0.0056  -7.2945   0.0000   0.1621
  -8.000  -0.5608   0.01021   0.00492  -0.0448  0.6806  0.0056  -7.1457   0.0000   0.1611
  -7.900  -0.5509   0.01008   0.00477  -0.0447  0.6782  0.0056  -6.9972   0.0000   0.1600
  -7.800  -0.5414   0.00989   0.00455  -0.0445  0.6756  0.0058  -6.8600   0.0000   0.1590
  -7.700  -0.5317   0.00974   0.00436  -0.0442  0.6729  0.0063  -6.7205   0.0000   0.1580
  -7.600  -0.5214   0.00965   0.00427  -0.0442  0.6700  0.0067  -6.5709   0.0000   0.1566
  -7.500  -0.5110   0.00960   0.00421  -0.0441  0.6668  0.0070  -6.4181   0.0000   0.1550
  -7.400  -0.5004   0.00956   0.00418  -0.0441  0.6632  0.0073  -6.2643   0.0000   0.1533
  -7.300  -0.4897   0.00953   0.00416  -0.0441  0.6593  0.0075  -6.1105   0.0000   0.1514
  -7.200  -0.4790   0.00950   0.00415  -0.0441  0.6556  0.0077  -5.9575   0.0000   0.1494
  -7.100  -0.4682   0.00948   0.00413  -0.0441  0.6523  0.0079  -5.8056   0.0000   0.1473
  -7.000  -0.4574   0.00946   0.00412  -0.0441  0.6499  0.0081  -5.6547   0.0000   0.1450
  -6.900  -0.4464   0.00943   0.00411  -0.0442  0.6495  0.0083  -5.5045   0.0000   0.1425
  -6.800  -0.4354   0.00941   0.00411  -0.0442  0.6491  0.0084  -5.3555   0.0000   0.1399
  -6.700  -0.4244   0.00939   0.00410  -0.0443  0.6485  0.0086  -5.2357   0.0000   0.1372
  -6.600  -0.4134   0.00937   0.00410  -0.0444  0.6478  0.0087  -5.1182   0.0000   0.1343
  -6.500  -0.4024   0.00935   0.00409  -0.0444  0.6470  0.0089  -5.0016   0.0000   0.1312
  -6.400  -0.3913   0.00934   0.00409  -0.0445  0.6461  0.0090  -4.8858   0.0000   0.1279
  -6.300  -0.3803   0.00933   0.00409  -0.0445  0.6451  0.0092  -4.7713   0.0000   0.1245
  -6.200  -0.3693   0.00932   0.00409  -0.0446  0.6439  0.0093  -4.6592   0.0000   0.1208
  -6.100  -0.3585   0.00927   0.00405  -0.0446  0.6426  0.0094  -4.5566   0.0000   0.1171
  -6.000  -0.3487   0.00909   0.00381  -0.0444  0.6412  0.0093  -4.4963   0.0000   0.1142
  -5.900  -0.3375   0.00910   0.00383  -0.0445  0.6396  0.0095  -4.3813   0.0000   0.1097
  -5.800  -0.3263   0.00912   0.00386  -0.0446  0.6379  0.0096  -4.2645   0.0000   0.1048
  -5.700  -0.3149   0.00916   0.00392  -0.0447  0.6361  0.0097  -4.1454   0.0000   0.0995
  -5.600  -0.3035   0.00922   0.00400  -0.0449  0.6342  0.0098  -4.0227   0.0000   0.0936
  -5.500  -0.2918   0.00932   0.00411  -0.0450  0.6322  0.0099  -3.8951   0.0000   0.0870
  -5.400  -0.2800   0.00946   0.00427  -0.0453  0.6300  0.0101  -3.7601   0.0000   0.0795
  -5.300  -0.2677   0.00966   0.00450  -0.0456  0.6276  0.0102  -3.6147   0.0000   0.0708
  -5.200  -0.2550   0.00998   0.00485  -0.0460  0.6249  0.0103  -3.4522   0.0000   0.0605
  -5.100  -0.2412   0.01056   0.00549  -0.0467  0.6219  0.0104  -3.2509   0.0000   0.0474
  -5.000  -0.2277   0.01134   0.00632  -0.0474  0.6188  0.0111  -2.9919   0.0000   0.0326
  -4.900  -0.2161   0.01269   0.00771  -0.0483  0.6156  0.0175  -2.6063   0.0000   0.0170
  -4.800  -0.2059   0.01240   0.00739  -0.0482  0.6129  0.0176  -2.5582   0.0000   0.0064
  -4.700  -0.1957   0.01209   0.00704  -0.0480  0.6102  0.0176  -2.5146   0.0000  -0.0052
  -4.600  -0.1854   0.01174   0.00667  -0.0479  0.6098  0.0175  -2.4743   0.0000  -0.0182
  -4.500  -0.1751   0.01139   0.00628  -0.0477  0.6094  0.0174  -2.4369   0.0000  -0.0328
  -4.400  -0.1648   0.01103   0.00590  -0.0475  0.6090  0.0173  -2.4015   0.0000  -0.0490
  -4.300  -0.1546   0.01068   0.00553  -0.0473  0.6085  0.0171  -2.3673   0.0000  -0.0672
  -4.200  -0.1444   0.01033   0.00516  -0.0471  0.6079  0.0169  -2.3339   0.0000  -0.0877
  -4.100  -0.1344   0.01000   0.00482  -0.0469  0.6071  0.0166  -2.3009   0.0000  -0.1110
  -4.000  -0.1244   0.00969   0.00449  -0.0467  0.6062  0.0164  -2.2680   0.0000  -0.1376
  -3.900  -0.1145   0.00939   0.00417  -0.0464  0.6052  0.0162  -2.2350   0.0000  -0.1684
  -3.800  -0.1041   0.00923   0.00400  -0.0463  0.6041  0.0163  -2.1802   0.0000  -0.2086
  -3.700  -0.0934   0.00915   0.00391  -0.0463  0.6028  0.0166  -2.1134   0.0000  -0.2605
  -3.600  -0.0828   0.00903   0.00379  -0.0462  0.6012  0.0168  -2.0524   0.0000  -0.3243
  -3.500  -0.0729   0.00879   0.00352  -0.0459  0.5995  0.0166  -2.0180   0.0000  -0.3977
  -3.400  -0.0633   0.00851   0.00321  -0.0456  0.5975  0.0162  -1.9917   0.0000  -0.4900
  -3.300  -0.0536   0.00828   0.00295  -0.0453  0.5953  0.0158  -1.9627   0.0000  -0.6183
  -3.200  -0.0437   0.00808   0.00271  -0.0451  0.5929  0.0155  -1.9321   0.0000  -0.8079
  -3.100  -0.0336   0.00791   0.00250  -0.0449  0.5903  0.0152  -1.8985   0.0000  -1.1162
  -3.000  -0.0234   0.00777   0.00232  -0.0447  0.5873  0.0149  -1.8616   0.0000  -1.7016
  -2.900  -0.0131   0.00765   0.00216  -0.0445  0.5837  0.0147  -1.8213   0.0000  -3.2318
  -2.800  -0.0026   0.00755   0.00202  -0.0444  0.5795  0.0145  -1.7776   0.0000  -17.2493
  -2.700   0.0080   0.00747   0.00191  -0.0443  0.5751  0.0144  -1.7309   0.0000   5.9026
  -2.600   0.0187   0.00740   0.00181  -0.0442  0.5710  0.0142  -1.6816   0.0000   2.6636
  -2.500   0.0296   0.00733   0.00173  -0.0442  0.5696  0.0141  -1.6304   0.0000   1.7728
  -2.400   0.0405   0.00726   0.00165  -0.0442  0.5689  0.0140  -1.5780   0.0000   1.3595
  -2.300   0.0515   0.00719   0.00157  -0.0442  0.5681  0.0139  -1.5252   0.0000   1.1218
  -2.200   0.0625   0.00714   0.00151  -0.0442  0.5670  0.0138  -1.4721   0.0000   0.9675
  -2.100   0.0735   0.00708   0.00145  -0.0442  0.5658  0.0137  -1.4190   0.0000   0.8593
  -2.000   0.0845   0.00704   0.00139  -0.0442  0.5643  0.0136  -1.3660   0.0000   0.7793
  -1.900   0.0955   0.00699   0.00133  -0.0442  0.5626  0.0135  -1.3134   0.0000   0.7177
  -1.800   0.1065   0.00695   0.00128  -0.0442  0.5606  0.0135  -1.2611   0.0000   0.6689
  -1.700   0.1175   0.00692   0.00123  -0.0442  0.5582  0.0134  -1.2093   0.0000   0.6293
  -1.600   0.1285   0.00689   0.00119  -0.0442  0.5556  0.0134  -1.1581   0.0000   0.5964
  -1.500   0.1395   0.00687   0.00114  -0.0442  0.5524  0.0133  -1.1075   0.0000   0.5688
  -1.400   0.1503   0.00686   0.00110  -0.0441  0.5470  0.0133  -1.0579   0.0000   0.5453
  -1.300   0.1611   0.00686   0.00106  -0.0441  0.5383  0.0133  -1.0092   0.0000   0.5250
  -1.200   0.1719   0.00685   0.00103  -0.0441  0.5298  0.0133  -0.9611   0.0000   0.5072
  -1.100   0.1831   0.00682   0.00099  -0.0441  0.5274  0.0134  -0.9137   0.0000   0.4914
  -1.000   0.1940   0.00681   0.00095  -0.0441  0.5219  0.0136  -0.8691   0.0000   0.4775
  -0.900   0.2044   0.00681   0.00091  -0.0439  0.5103  0.0191  -0.8522   0.0000   0.4648
  -0.800   0.2148   0.00686   0.00090  -0.0438  0.4931  0.0210  -0.8025   0.0000   0.4538
  -0.700   0.2255   0.00684   0.00089  -0.0438  0.4866  0.0299  -0.7515   0.0000   0.4438
  -0.600   0.2361   0.00683   0.00088  -0.0437  0.4779  0.0397  -0.7013   0.0000   0.4346
  -0.500   0.2464   0.00687   0.00088  -0.0436  0.4658  0.0457  -0.6553   0.0000   0.4263
  -0.400   0.2567   0.00687   0.00088  -0.0436  0.4531  0.0588  -0.6636   0.0000   0.4187
  -0.300   0.2677   0.00684   0.00086  -0.0436  0.4491  0.0684  -0.6722   0.0000   0.4116
  -0.200   0.2788   0.00683   0.00086  -0.0436  0.4474  0.0698  -0.6810   0.0000   0.4051
  -0.100   0.2899   0.00683   0.00085  -0.0437  0.4452  0.0708  -0.6898   0.0000   0.3991
   0.000   0.3010   0.00683   0.00085  -0.0437  0.4413  0.0744  -0.6986   0.0000   0.3935
   0.100   0.3116   0.00685   0.00085  -0.0437  0.4332  0.0794  -0.7072   0.0000   0.3883
   0.200   0.3219   0.00691   0.00087  -0.0436  0.4202  0.0833  -0.7154   0.0000   0.3835
   0.300   0.3324   0.00691   0.00087  -0.0435  0.4092  0.0973  -0.7240   0.0000   0.3789
   0.400   0.3423   0.00676   0.00086  -0.0434  0.4055  0.1575  -0.7329   0.0000   0.3746
   0.500   0.3530   0.00675   0.00086  -0.0434  0.4013  0.1714  -0.7423   0.0000   0.3706
   0.600   0.3634   0.00670   0.00087  -0.0433  0.3966  0.1968  -0.7515   0.0000   0.3668
   0.700   0.3740   0.00670   0.00088  -0.0433  0.3914  0.2112  -0.7609   0.0000   0.3633
   0.800   0.3845   0.00670   0.00089  -0.0432  0.3857  0.2249  -0.7702   0.0000   0.3599
   0.900   0.3949   0.00667   0.00090  -0.0432  0.3787  0.2469  -0.7796   0.0000   0.3567
   1.000   0.4050   0.00658   0.00090  -0.0431  0.3712  0.2874  -0.7895   0.0000   0.3536
   1.100   0.4159   0.00655   0.00091  -0.0431  0.3690  0.3043  -0.7999   0.0000   0.3508
   1.200   0.4248   0.00626   0.00090  -0.0429  0.3673  0.4085  -0.8090   0.0000   0.3479
   1.300   0.4350   0.00617   0.00091  -0.0428  0.3647  0.4475  -0.8191   0.0000   0.3453
   1.500   0.4554   0.00617   0.00097  -0.0426  0.3507  0.4929  -0.8392   0.0000   0.3402
   1.600   0.4653   0.00619   0.00101  -0.0424  0.3397  0.5153  -0.8490   0.0000   0.3378
   1.700   0.4759   0.00622   0.00103  -0.0424  0.3305  0.5259  -0.8593   0.0000   0.3356
   1.800   0.4869   0.00623   0.00105  -0.0424  0.3280  0.5303  -0.8700   0.0000   0.3336
   1.900   0.4977   0.00623   0.00107  -0.0424  0.3249  0.5459  -0.8805   0.0000   0.3316
   2.100   0.5180   0.00626   0.00114  -0.0422  0.3112  0.5840  -0.9007   0.0000   0.3276
   2.200   0.5281   0.00582   0.00112  -0.0420  0.3357  0.6856  -0.9109   0.0000   0.3256
   2.300   0.5379   0.00571   0.00115  -0.0418  0.3346  0.7293  -0.9208   0.0000   0.3237
   2.400   0.5468   0.00559   0.00118  -0.0413  0.3316  0.7863  -0.9310   0.0000   0.3215
   2.500   0.5554   0.00546   0.00121  -0.0408  0.3297  0.8404  -0.9427   0.0000   0.3193
   2.600   0.5639   0.00537   0.00125  -0.0402  0.3286  0.8867  -0.9544   0.0000   0.3170
   2.700   0.5729   0.00532   0.00129  -0.0397  0.3273  0.9202  -0.9678   0.0000   0.3149
   2.800   0.5834   0.00532   0.00132  -0.0395  0.3254  0.9384  -0.9835   0.0000   0.3133
   2.900   0.5950   0.00534   0.00135  -0.0397  0.3224  0.9491  -1.0001   0.0000   0.3121
   3.000   0.6070   0.00539   0.00139  -0.0399  0.3180  0.9566  -1.0170   0.0000   0.3111
   3.100   0.6209   0.00548   0.00144  -0.0406  0.3102  0.9624  -1.0355   0.0000   0.3106
   3.200   0.6351   0.00558   0.00149  -0.0414  0.3013  0.9673  -1.0542   0.0000   0.3103
   3.300   0.6491   0.00566   0.00154  -0.0421  0.2914  0.9716  -1.0729   0.0000   0.3099
   3.400   0.6623   0.00570   0.00157  -0.0426  0.2882  0.9752  -1.0911   0.0000   0.3093
   3.500   0.6742   0.00575   0.00160  -0.0428  0.2848  0.9783  -1.1083   0.0000   0.3084
   3.700   0.6997   0.00600   0.00173  -0.0438  0.2653  0.9824  -1.1439   0.0000   0.3073
   3.800   0.7136   0.00609   0.00179  -0.0445  0.2541  0.9841  -1.1627   0.0000   0.3070
   3.900   0.7272   0.00617   0.00183  -0.0452  0.2481  0.9857  -1.1815   0.0000   0.3066
   4.000   0.7392   0.00640   0.00195  -0.0456  0.2280  0.9874  -1.1987   0.0000   0.3061
   4.100   0.7513   0.00660   0.00205  -0.0460  0.2093  0.9890  -1.2280   0.0000   0.3055
   4.200   0.7628   0.00685   0.00218  -0.0463  0.1891  0.9906  -1.2789   0.0000   0.3049
   4.300   0.7751   0.00700   0.00227  -0.0467  0.1777  0.9918  -1.3325   0.0000   0.3044
   4.400   0.7871   0.00716   0.00237  -0.0471  0.1654  0.9930  -1.3859   0.0000   0.3038
   4.500   0.7996   0.00727   0.00244  -0.0475  0.1564  0.9939  -1.4410   0.0000   0.3033
   4.600   0.8109   0.00749   0.00256  -0.0477  0.1376  0.9949  -1.4939   0.0000   0.3027
   4.700   0.8230   0.00763   0.00264  -0.0481  0.1290  0.9956  -1.5491   0.0000   0.3021
   4.800   0.8352   0.00775   0.00272  -0.0484  0.1202  0.9963  -1.6054   0.0000   0.3016
   4.900   0.8478   0.00782   0.00277  -0.0489  0.1172  0.9968  -1.6634   0.0000   0.3011
   5.000   0.8585   0.00812   0.00295  -0.0490  0.0947  0.9975  -1.7161   0.0000   0.3005
   5.100   0.8694   0.00838   0.00311  -0.0492  0.0762  0.9980  -1.7700   0.0000   0.2999
   5.200   0.8804   0.00864   0.00327  -0.0494  0.0603  0.9985  -1.8241   0.0000   0.2992
   5.300   0.8926   0.00879   0.00338  -0.0498  0.0542  0.9989  -1.8825   0.0000   0.2988
   5.400   0.9057   0.00890   0.00346  -0.0503  0.0491  0.9992  -1.9436   0.0000   0.2985
   5.500   0.9167   0.00929   0.00372  -0.0506  0.0235  0.9997  -1.9978   0.0000   0.2980
   5.600   0.9300   0.00945   0.00382  -0.0512  0.0184  1.0000  -2.0579   0.0000   0.2978
   5.900   0.9557   0.00977   0.00412  -0.0497  0.0126  1.0000  -2.1546   0.0000   0.2944
   6.000   0.9640   0.00988   0.00431  -0.0492  0.0105  1.0000  -2.2394   0.0000   0.2933
   6.300   0.9907   0.01007   0.00448  -0.0482  0.0103  1.0000  -2.4631   0.0000   0.2905
   6.400   0.9994   0.01015   0.00456  -0.0478  0.0102  1.0000  -2.5254   0.0000   0.2895
   6.500   1.0080   0.01023   0.00465  -0.0473  0.0101  1.0000  -2.5866   0.0000   0.2886
   6.600   1.0167   0.01032   0.00473  -0.0469  0.0099  1.0000  -2.6474   0.0000   0.2876
   6.700   1.0254   0.01041   0.00482  -0.0465  0.0096  1.0000  -2.7081   0.0000   0.2867
   6.800   1.0341   0.01050   0.00490  -0.0461  0.0093  1.0000  -2.7690   0.0000   0.2858
   6.900   1.0428   0.01060   0.00499  -0.0457  0.0091  1.0000  -2.8302   0.0000   0.2849
   7.000   1.0515   0.01069   0.00509  -0.0453  0.0088  1.0000  -2.8917   0.0000   0.2840
   7.100   1.0602   0.01079   0.00518  -0.0449  0.0085  1.0000  -2.9535   0.0000   0.2832
   7.200   1.0688   0.01090   0.00527  -0.0445  0.0082  1.0000  -3.0155   0.0000   0.2823
   7.300   1.0775   0.01100   0.00537  -0.0441  0.0079  1.0000  -3.0779   0.0000   0.2815
   7.400   1.0861   0.01111   0.00547  -0.0437  0.0077  1.0000  -3.1406   0.0000   0.2806
   7.500   1.0947   0.01121   0.00557  -0.0433  0.0074  1.0000  -3.2035   0.0000   0.2798
   7.600   1.1060   0.01115   0.00555  -0.0433  0.0098  1.0000  -3.2389   0.0000   0.2793
   7.700   1.1150   0.01124   0.00564  -0.0429  0.0100  1.0000  -3.2943   0.0000   0.2785
   7.800   1.1238   0.01133   0.00573  -0.0425  0.0099  1.0000  -3.3569   0.0000   0.2777
   7.900   1.1326   0.01143   0.00583  -0.0422  0.0099  1.0000  -3.4218   0.0000   0.2770
   8.000   1.1413   0.01153   0.00593  -0.0418  0.0097  1.0000  -3.4878   0.0000   0.2762
   8.100   1.1499   0.01163   0.00603  -0.0414  0.0096  1.0000  -3.5544   0.0000   0.2754
   8.200   1.1584   0.01174   0.00614  -0.0410  0.0094  1.0000  -3.6214   0.0000   0.2747
   8.300   1.1668   0.01185   0.00624  -0.0405  0.0092  1.0000  -3.6886   0.0000   0.2739
   8.400   1.1752   0.01196   0.00635  -0.0401  0.0090  1.0000  -3.7561   0.0000   0.2732
   8.500   1.1834   0.01208   0.00647  -0.0396  0.0087  1.0000  -3.8237   0.0000   0.2724
   8.600   1.1915   0.01220   0.00659  -0.0392  0.0084  1.0000  -3.8914   0.0000   0.2716
   8.700   1.1994   0.01233   0.00671  -0.0387  0.0081  1.0000  -3.9591   0.0000   0.2708
   8.800   1.2073   0.01246   0.00683  -0.0381  0.0077  1.0000  -4.0268   0.0000   0.2700
   8.900   1.2150   0.01260   0.00696  -0.0376  0.0074  1.0000  -4.0944   0.0000   0.2693
   9.000   1.2227   0.01273   0.00709  -0.0371  0.0071  1.0000  -4.1619   0.0000   0.2685
   9.100   1.2304   0.01286   0.00722  -0.0365  0.0068  1.0000  -4.2295   0.0000   0.2677
   9.200   1.2380   0.01299   0.00734  -0.0360  0.0065  1.0000  -4.2967   0.0000   0.2669
   9.300   1.2455   0.01312   0.00747  -0.0354  0.0062  1.0000  -4.3639   0.0000   0.2661
   9.400   1.2530   0.01325   0.00760  -0.0348  0.0060  1.0000  -4.4310   0.0000   0.2653
   9.500   1.2605   0.01338   0.00773  -0.0342  0.0057  1.0000  -4.4980   0.0000   0.2646
   9.600   1.2678   0.01351   0.00787  -0.0336  0.0056  1.0000  -4.5649   0.0000   0.2638
   9.700   1.2750   0.01364   0.00800  -0.0330  0.0055  1.0000  -4.6311   0.0000   0.2630
   9.800   1.2821   0.01377   0.00814  -0.0324  0.0055  1.0000  -4.6971   0.0000   0.2622
   9.900   1.2890   0.01391   0.00828  -0.0317  0.0055  1.0000  -4.7632   0.0000   0.2614
  10.000   1.2959   0.01406   0.00843  -0.0310  0.0054  1.0000  -4.8292   0.0000   0.2606
  10.100   1.3023   0.01420   0.00858  -0.0303  0.0054  1.0000  -4.8939   0.0000   0.2597
  10.200   1.3072   0.01434   0.00873  -0.0292  0.0054  1.0000  -4.9532   0.0000   0.2586
  10.300   1.3113   0.01447   0.00887  -0.0280  0.0053  1.0000  -5.0096   0.0000   0.2575
  10.400   1.3134   0.01468   0.00912  -0.0264  0.0051  1.0000  -5.0708   0.0000   0.2561
  10.500   1.3177   0.01484   0.00930  -0.0253  0.0051  1.0000  -5.1313   0.0000   0.2550
  10.600   1.3225   0.01501   0.00948  -0.0243  0.0050  1.0000  -5.1930   0.0000   0.2540
  10.700   1.3274   0.01518   0.00966  -0.0233  0.0050  1.0000  -5.2553   0.0000   0.2531
  10.800   1.3321   0.01537   0.00986  -0.0223  0.0050  1.0000  -5.3166   0.0000   0.2521
  10.900   1.3369   0.01556   0.01006  -0.0214  0.0049  1.0000  -5.3782   0.0000   0.2512
  11.000   1.3419   0.01575   0.01027  -0.0205  0.0049  1.0000  -5.4409   0.0000   0.2503
  11.100   1.3471   0.01595   0.01048  -0.0197  0.0049  1.0000  -5.5043   0.0000   0.2494
  11.200   1.3521   0.01617   0.01071  -0.0188  0.0049  1.0000  -5.5671   0.0000   0.2486
  11.300   1.3570   0.01639   0.01095  -0.0180  0.0048  1.0000  -5.6298   0.0000   0.2478
  11.400   1.3620   0.01661   0.01119  -0.0173  0.0048  1.0000  -5.6932   0.0000   0.2470
  11.500   1.3669   0.01685   0.01144  -0.0165  0.0048  1.0000  -5.7559   0.0000   0.2462
  11.600   1.3716   0.01711   0.01170  -0.0158  0.0048  1.0000  -5.8185   0.0000   0.2455
  11.700   1.3765   0.01736   0.01198  -0.0150  0.0048  1.0000  -5.8819   0.0000   0.2447
  11.800   1.3813   0.01764   0.01227  -0.0143  0.0048  1.0000  -5.9448   0.0000   0.2440
  11.900   1.3858   0.01793   0.01258  -0.0136  0.0047  1.0000  -6.0066   0.0000   0.2433
  12.000   1.3904   0.01823   0.01289  -0.0130  0.0047  1.0000  -6.0693   0.0000   0.2426
  12.100   1.3951   0.01854   0.01322  -0.0124  0.0047  1.0000  -6.1327   0.0000   0.2419
  12.200   1.3994   0.01888   0.01357  -0.0117  0.0047  1.0000  -6.1941   0.0000   0.2413
  12.300   1.4034   0.01923   0.01394  -0.0111  0.0047  1.0000  -6.2546   0.0000   0.2406
  12.400   1.4076   0.01958   0.01431  -0.0105  0.0047  1.0000  -6.3163   0.0000   0.2400
  12.500   1.4120   0.01993   0.01468  -0.0099  0.0047  1.0000  -6.3786   0.0000   0.2393
  12.600   1.4157   0.02034   0.01511  -0.0093  0.0046  1.0000  -6.4380   0.0000   0.2387
  12.700   1.4206   0.02067   0.01546  -0.0089  0.0047  1.0000  -6.4973   0.0000   0.2382
  12.800   1.4248   0.02107   0.01587  -0.0084  0.0047  1.0000  -6.5581   0.0000   0.2376
  12.900   1.4290   0.02148   0.01630  -0.0079  0.0047  1.0000  -6.6195   0.0000   0.2371
  13.000   1.4322   0.02197   0.01681  -0.0074  0.0046  1.0000  -6.6770   0.0000   0.2365
  13.100   1.4355   0.02246   0.01733  -0.0070  0.0046  1.0000  -6.7352   0.0000   0.2360
  13.200   1.4392   0.02294   0.01783  -0.0065  0.0046  1.0000  -6.7953   0.0000   0.2355
  13.300   1.4429   0.02343   0.01833  -0.0061  0.0046  1.0000  -6.8559   0.0000   0.2350
  13.400   1.4457   0.02400   0.01893  -0.0057  0.0046  1.0000  -6.9118   0.0000   0.2345
  13.500   1.4484   0.02459   0.01954  -0.0053  0.0046  1.0000  -6.9674   0.0000   0.2340
  13.600   1.4515   0.02515   0.02012  -0.0049  0.0046  1.0000  -7.0603   0.0000   0.2335
  13.700   1.4546   0.02570   0.02070  -0.0046  0.0046  1.0000  -7.1579   0.0000   0.2330
  13.800   1.4566   0.02636   0.02138  -0.0042  0.0046  1.0000  -7.2473   0.0000   0.2326
  13.900   1.4585   0.02705   0.02210  -0.0039  0.0045  1.0000  -7.3355   0.0000   0.2321
  14.000   1.4609   0.02769   0.02276  -0.0036  0.0045  1.0000  -7.4290   0.0000   0.2317
  14.100   1.4635   0.02833   0.02342  -0.0032  0.0045  1.0000  -7.5238   0.0000   0.2313
  14.200   1.4657   0.02901   0.02413  -0.0029  0.0045  1.0000  -7.6157   0.0000   0.2308
  14.300   1.4665   0.02985   0.02500  -0.0027  0.0045  1.0000  -7.6959   0.0000   0.2305
  14.400   1.4681   0.03061   0.02579  -0.0024  0.0045  1.0000  -7.7829   0.0000   0.2301
  14.500   1.4700   0.03134   0.02654  -0.0022  0.0045  1.0000  -7.8729   0.0000   0.2297
  14.600   1.4718   0.03207   0.02730  -0.0019  0.0045  1.0000  -7.9632   0.0000   0.2293
  14.700   1.4724   0.03296   0.02821  -0.0017  0.0045  1.0000  -8.0421   0.0000   0.2289
  14.800   1.4723   0.03391   0.02920  -0.0015  0.0045  1.0000  -8.1159   0.0000   0.2285
  14.900   1.4733   0.03476   0.03007  -0.0013  0.0045  1.0000  -8.1987   0.0000   0.2282
  15.000   1.4744   0.03558   0.03092  -0.0011  0.0045  1.0000  -8.2835   0.0000   0.2278
  15.100   1.4754   0.03639   0.03176  -0.0008  0.0044  1.0000  -8.3670   0.0000   0.2274
  15.200   1.4753   0.03734   0.03274  -0.0006  0.0044  1.0000  -8.4408   0.0000   0.2270
  15.300   1.4711   0.03874   0.03419  -0.0005  0.0044  1.0000  -8.4723   0.0000   0.2267
  15.400   1.4704   0.03977   0.03526  -0.0004  0.0044  1.0000  -8.5385   0.0000   0.2264
  15.500   1.4703   0.04075   0.03626  -0.0002  0.0044  1.0000  -8.6110   0.0000   0.2260
  15.600   1.4702   0.04172   0.03727  -0.0000  0.0044  1.0000  -8.6843   0.0000   0.2257
  15.700   1.4700   0.04274   0.03832   0.0001  0.0044  1.0000  -8.7563   0.0000   0.2254
  15.800   1.4665   0.04419   0.03981   0.0000  0.0044  1.0000  -8.7979   0.0000   0.2252
  15.900   1.4648   0.04543   0.04109   0.0000  0.0044  1.0000  -8.8553   0.0000   0.2250
  16.000   1.4641   0.04656   0.04224   0.0000  0.0044  1.0000  -8.9222   0.0000   0.2247
  16.100   1.4635   0.04766   0.04338   0.0001  0.0044  1.0000  -8.9901   0.0000   0.2244
  16.200   1.4628   0.04880   0.04455   0.0001  0.0044  1.0000  -9.0571   0.0000   0.2242
  16.300   1.4611   0.05007   0.04586   0.0000  0.0044  1.0000  -9.1147   0.0000   0.2240
  16.400   1.4563   0.05180   0.04763  -0.0003  0.0044  1.0000  -9.1421   0.0000   0.2239
  16.500   1.4544   0.05313   0.04899  -0.0004  0.0043  1.0000  -9.1961   0.0000   0.2238
  16.600   1.4529   0.05438   0.05028  -0.0004  0.0043  1.0000  -9.2547   0.0000   0.2236
  16.700   1.4514   0.05564   0.05158  -0.0005  0.0043  1.0000  -9.3132   0.0000   0.2234
  16.800   1.4498   0.05696   0.05292  -0.0006  0.0043  1.0000  -9.3703   0.0000   0.2232
  16.900   1.4451   0.05875   0.05476  -0.0010  0.0043  1.0000  -9.3964   0.0000   0.2232
  17.000   1.4407   0.06053   0.05658  -0.0014  0.0043  1.0000  -9.4240   0.0000   0.2232
  17.100   1.4384   0.06201   0.05809  -0.0016  0.0043  1.0000  -9.4727   0.0000   0.2232
  17.200   1.4363   0.06344   0.05957  -0.0018  0.0043  1.0000  -9.5235   0.0000   0.2231
  17.300   1.4341   0.06491   0.06107  -0.0020  0.0043  1.0000  -9.5721   0.0000   0.2230
  17.400   1.4314   0.06644   0.06264  -0.0023  0.0043  1.0000  -9.6160   0.0000   0.2229
  17.500   1.4239   0.06881   0.06505  -0.0031  0.0043  1.0000  -9.6096   0.0000   0.2232
  17.600   1.4201   0.07057   0.06686  -0.0035  0.0043  1.0000  -9.6404   0.0000   0.2233
  17.700   1.4172   0.07218   0.06851  -0.0038  0.0043  1.0000  -9.6803   0.0000   0.2233
  17.800   1.4143   0.07378   0.07014  -0.0042  0.0043  1.0000  -9.7202   0.0000   0.2233
  17.900   1.4113   0.07542   0.07182  -0.0045  0.0043  1.0000  -9.7572   0.0000   0.2233
  18.000   1.4076   0.07713   0.07357  -0.0049  0.0043  1.0000  -9.7879   0.0000   0.2233
  18.100   1.3984   0.07982   0.07631  -0.0059  0.0043  1.0000  -9.7584   0.0000   0.2238
  18.200   1.3935   0.08179   0.07832  -0.0064  0.0043  1.0000  -9.7738   0.0000   0.2239
  18.300   1.3894   0.08362   0.08019  -0.0069  0.0043  1.0000  -9.7979   0.0000   0.2241
  18.400   1.3856   0.08545   0.08206  -0.0074  0.0043  1.0000  -9.8228   0.0000   0.2242
  18.500   1.3812   0.08738   0.08403  -0.0080  0.0043  1.0000  -9.8420   0.0000   0.2244
  18.600   1.3713   0.09033   0.08704  -0.0091  0.0043  1.0000  -9.7987   0.0000   0.2250
  18.700   1.3652   0.09259   0.08934  -0.0099  0.0043  1.0000  -9.7970   0.0000   0.2253
  18.800   1.3610   0.09455   0.09134  -0.0105  0.0043  1.0000  -9.8141   0.0000   0.2256
  18.900   1.3568   0.09648   0.09331  -0.0111  0.0043  1.0000  -9.8317   0.0000   0.2258
  19.000   1.3525   0.09846   0.09533  -0.0117  0.0043  1.0000  -9.8457   0.0000   0.2260
  19.100   1.3475   0.10054   0.09745  -0.0124  0.0043  1.0000  -9.8525   0.0000   0.2263
  19.200   1.3374   0.10362   0.10058  -0.0137  0.0043  1.0000  -9.7994   0.0000   0.2271
  19.300   1.3301   0.10621   0.10321  -0.0147  0.0043  1.0000  -9.7767   0.0000   0.2277
  19.400   1.3251   0.10834   0.10538  -0.0155  0.0043  1.0000  -9.7786   0.0000   0.2281
  19.500   1.3202   0.11038   0.10747  -0.0162  0.0043  1.0000  -9.7817   0.0000   0.2284
  19.600   1.3152   0.11246   0.10959  -0.0169  0.0043  1.0000  -9.7816   0.0000   0.2288
  19.700   1.3097   0.11465   0.11182  -0.0177  0.0043  1.0000  -9.7752   0.0000   0.2292
  19.800   1.3033   0.11704   0.11426  -0.0186  0.0043  1.0000  -9.7568   0.0000   0.2297
  19.900   1.2924   0.12045   0.11772  -0.0201  0.0043  1.0000  -9.6816   0.0000   0.2308
  20.000   1.2863   0.12286   0.12017  -0.0211  0.0043  1.0000  -9.6627   0.0000   0.2314
  20.100   1.2807   0.12517   0.12253  -0.0220  0.0043  1.0000  -9.6477   0.0000   0.2320
  20.200   1.2750   0.12752   0.12492  -0.0230  0.0044  1.0000  -9.6292   0.0000   0.2326
  20.300   1.2689   0.12996   0.12741  -0.0240  0.0044  1.0000  -9.6049   0.0000   0.2333
  20.400   1.2591   0.13326   0.13075  -0.0255  0.0044  1.0000  -9.5321   0.0000   0.2344
  20.500   1.2518   0.13602   0.13356  -0.0268  0.0044  1.0000  -9.4878   0.0000   0.2353
  20.600   1.2455   0.13857   0.13615  -0.0279  0.0044  1.0000  -9.4536   0.0000   0.2361
  20.700   1.2391   0.14114   0.13877  -0.0291  0.0044  1.0000  -9.4160   0.0000   0.2370
  20.800   1.2319   0.14392   0.14159  -0.0304  0.0044  1.0000  -9.3656   0.0000   0.2380
  20.900   1.2224   0.14727   0.14500  -0.0320  0.0044  1.0000  -9.2826   0.0000   0.2393
  21.000   1.2153   0.15009   0.14786  -0.0334  0.0044  1.0000  -9.2276   0.0000   0.2404
  21.100   1.2082   0.15289   0.15071  -0.0347  0.0044  1.0000  -9.1701   0.0000   0.2415
  21.200   1.1989   0.15617   0.15404  -0.0364  0.0044  1.0000  -9.0810   0.0000   0.2429
  21.300   1.1904   0.15929   0.15721  -0.0379  0.0044  1.0000  -8.9993   0.0000   0.2443
  21.400   1.1820   0.16248   0.16044  -0.0395  0.0044  1.0000  -8.9135   0.0000   0.2457
  21.500   1.1724   0.16600   0.16401  -0.0414  0.0044  1.0000  -8.8077   0.0000   0.2474
  21.600   1.1642   0.16922   0.16727  -0.0430  0.0044  1.0000  -8.7178   0.0000   0.2490
  21.700   1.1544   0.17296   0.17106  -0.0450  0.0044  1.0000  -8.5972   0.0000   0.2509
  21.800   1.1455   0.17651   0.17466  -0.0469  0.0044  1.0000  -8.4855   0.0000   0.2527
  21.900   1.1370   0.18000   0.17820  -0.0488  0.0044  1.0000  -8.3747   0.0000   0.2546
  22.000   1.1261   0.18425   0.18251  -0.0511  0.0045  1.0000  -8.2184   0.0000   0.2570
  22.100   1.1170   0.18811   0.18641  -0.0532  0.0045  1.0000  -8.0820   0.0000   0.2592
  22.200   1.1056   0.19268   0.19104  -0.0556  0.0045  1.0000  -7.9003   0.0000   0.2619
  22.300   1.0956   0.19699   0.19539  -0.0580  0.0045  1.0000  -7.7305   0.0000   0.2645
  22.400   1.0838   0.20197   0.20043  -0.0607  0.0045  1.0000  -7.5144   0.0000   0.2676
  22.500   1.0714   0.20731   0.20582  -0.0636  0.0045  1.0000  -7.2699   0.0000   0.2711
  22.600   1.0552   0.21407   0.21265  -0.0671  0.0045  1.0000  -6.9231   0.0000   0.2756
  22.700   1.0329   0.22337   0.22203  -0.0718  0.0045  1.0000  -6.3899   0.0000   0.2822


